
-------------------------------------------------------------------------
|    ___ _   _ ___                                                      |
|   / __| | | |_  )   Release 7.5.1 "Blackbird"                         |
|   \__ \ |_| |/ /                                                      |
|   |___/\___//___|   Suite (Computational Fluid Dynamics Code)         |
|                                                                       |
-------------------------------------------------------------------------
| SU2 Project Website: https://su2code.github.io                        |
|                                                                       |
| The SU2 Project is maintained by the SU2 Foundation                   |
| (http://su2foundation.org)                                            |
-------------------------------------------------------------------------
| Copyright 2012-2023, SU2 Contributors                                 |
|                                                                       |
| SU2 is free software; you can redistribute it and/or                  |
| modify it under the terms of the GNU Lesser General Public            |
| License as published by the Free Software Foundation; either          |
| version 2.1 of the License, or (at your option) any later version.    |
|                                                                       |
| SU2 is distributed in the hope that it will be useful,                |
| but WITHOUT ANY WARRANTY; without even the implied warranty of        |
| MERCHANTABILITY or FITNESS FOR A PARTICULAR PURPOSE. See the GNU      |
| Lesser General Public License for more details.                       |
|                                                                       |
| You should have received a copy of the GNU Lesser General Public      |
| License along with SU2. If not, see <http://www.gnu.org/licenses/>.   |
-------------------------------------------------------------------------

Parsing config file for zone 0

----------------- Physical Case Definition ( Zone 0 ) -------------------
Compressible Euler equations.
Mach number: 1.7.
Angle of attack (AoA): 0 deg, and angle of sideslip (AoS): 0 deg.
Reading and writing binary SU2 native restart files.
Read flow solution from: solution_flow.dat.
Dimensional simulation.
The reference area is 1 m^2.
The semi-span will be computed using the max y(3D) value.
The reference length is 1 m.
Input mesh file name: mesh0.su2

--------------- Space Numerical Integration ( Zone 0 ) ------------------
Roe (with entropy fix = 0.001) solver for the flow inviscid terms.
Standard Roe without low-dissipation function.
Second order integration in space, with slope limiter.
No slope-limiting method. 
Gradient for upwind reconstruction: inverse-distance weighted Least-Squares.
Gradient for viscous and source terms: inverse-distance weighted Least-Squares.

--------------- Time Numerical Integration  ( Zone 0 ) ------------------
Local time stepping (steady state simulation).
Euler implicit method for the flow equations.
FGMRES is used for solving the linear system.
Using a ILU(0) preconditioning.
Convergence criteria of the linear solver: 1e-06.
Max number of linear iterations: 20.
CFL adaptation. Factor down: 0.1, factor up: 2,
                lower limit: 0.1, upper limit: 100,
                acceptable linear residual: 0.001.
Courant-Friedrichs-Lewy number:      0.1

------------------ Convergence Criteria  ( Zone 0 ) ---------------------
Maximum number of solver subiterations: 1000.
Begin convergence monitoring at iteration 10.
Residual minimum value: 1e-11.
Cauchy series min. value: 1e-10.
Number of Cauchy elements: 100.
Begin windowed time average at iteration 0.

-------------------- Output Information ( Zone 0 ) ----------------------
File writing frequency: 
+------------------------------------+
|                     File| Frequency|
+------------------------------------+
|                  RESTART|       100|
|                 PARAVIEW|       100|
|         SURFACE_PARAVIEW|       100|
+------------------------------------+
Writing the convergence history file every 1 inner iterations.
Writing the screen convergence history every 1 inner iterations.
The tabular file format is CSV (.csv).
Convergence history file name: history.
Forces breakdown file name: forces_breakdown.dat.
Surface file name: surface_flow.
Volume file name: flow.
Restart file name: restart_flow.dat.

------------- Config File Boundary Information ( Zone 0 ) ---------------
+-----------------------------------------------------------------------+
|                        Marker Type|                        Marker Name|
+-----------------------------------------------------------------------+
|                         Euler wall|                                  4|
|                                   |                                  5|
+-----------------------------------------------------------------------+
|                     Symmetry plane|                                  2|
+-----------------------------------------------------------------------+
|                   Riemann boundary|                                  1|
|                                   |                                  3|
+-----------------------------------------------------------------------+

-------------------- Output Preprocessing ( Zone 0 ) --------------------

WARNING: SURFACE_PRESSURE_DROP can only be computed for at least 2 surfaces (outlet, inlet, ...)

Screen output fields: INNER_ITER, WALL_TIME, RMS_DENSITY
History output group(s): ITER, RMS_RES
Convergence field(s): RMS_DENSITY
Warning: No (valid) fields chosen for time convergence monitoring. Time convergence monitoring inactive.
Volume output fields: COORDINATES, SOLUTION, PRIMITIVE

------------------- Geometry Preprocessing ( Zone 0 ) -------------------
Two dimensional problem.
2614 grid points before partitioning.
5034 volume elements before partitioning.
5 surface markers.
40 boundary elements in index 0 (Marker = 1).
50 boundary elements in index 1 (Marker = 2).
50 boundary elements in index 2 (Marker = 3).
37 boundary elements in index 3 (Marker = 4).
15 boundary elements in index 4 (Marker = 5).
Executing the partitioning functions.
Building the graph adjacency structure.
Calling ParMETIS... graph partitioning complete (209 edge cuts).
Distributing ParMETIS coloring.
Rebalancing vertices.
Rebalancing volume element connectivity.
Rebalancing markers and surface elements.
2828 vertices including ghost points. 
5242 interior elements including halo cells. 
5242 triangles.
Establishing MPI communication patterns.
Setting point connectivity.
Renumbering points (Reverse Cuthill McKee Ordering).
Recomputing point connectivity.
Setting element connectivity.
Checking the numerical grid orientation.
All volume elements are correctly orientend.
There has been a re-orientation of 196 LINE surface elements.
Identifying edges and vertices.
Setting the control volume structure.
Area of the computational grid: 0.906293.
Searching for the closest normal neighbors to the surfaces.
Storing a mapping from global to local point index.
Compute the surface curvature.
Max K: 80.4821. Mean K: 3.11267. Standard deviation K: 14.5031.
Checking for periodicity.
Computing mesh quality statistics for the dual control volumes.
+--------------------------------------------------------------+
|           Mesh Quality Metric|        Minimum|        Maximum|
+--------------------------------------------------------------+
|    Orthogonality Angle (deg.)|        80.2461|        89.9998|
|     CV Face Area Aspect Ratio|        1.00002|        6.79992|
|           CV Sub-Volume Ratio|        1.00001|        2.81985|
+--------------------------------------------------------------+
Finding max control volume width.
Communicating number of neighbors.
Wetted area = 0 m.
Area projection in the x-plane = 0 m, y-plane = 0 m.
Max. coordinate in the x-direction = -1e+10 m, y-direction = -1e+10 m.
Min. coordinate in the x-direction = 1e+10 m, y-direction = 1e+10 m.
Checking if Euler & Symmetry markers are straight/plane:
Boundary marker 4 is a single straight.
Boundary marker 5 is a single straight.
Boundary marker 2 is a single straight.
Computing wall distances.

-------------------- Solver Preprocessing ( Zone 0 ) --------------------
Inviscid flow: Computing density based on free-stream
temperature and pressure using the ideal gas law.
Force coefficients computed using free-stream values.

-- Models:
+------------------------------------------------------------------------------+
|          Viscosity Model|        Conductivity Model|              Fluid Model|
+------------------------------------------------------------------------------+
|                        -|                         -|         CoolProp library|
+------------------------------------------------------------------------------+
-- Fluid properties:
+------------------------------------------------------------------------------+
|                  Name|    Dim. value|    Ref. value|      Unit|Non-dim. value|
+------------------------------------------------------------------------------+
|          Gas Constant|       35.1516|             1|  N.m/kg.K|       35.1516|
|      Spec. Heat Ratio|             -|             -|         -|             -|
|     Critical Pressure|   1.41004e+06|             1|          |   1.41004e+06|
|  Critical Temperature|        564.09|             1|         K|        564.09|
+------------------------------------------------------------------------------+
-- Initial and free-stream conditions:
+------------------------------------------------------------------------------+
|                  Name|    Dim. value|    Ref. value|      Unit|Non-dim. value|
+------------------------------------------------------------------------------+
|       Static Pressure|    1.4999e+06|             1|        Pa|    1.4999e+06|
|               Density|       202.888|             1|    kg/m^3|       202.888|
|           Temperature|       569.844|             1|         K|       569.844|
|          Total Energy|        369670|             1|   m^2/s^2|        369670|
|            Velocity-X|       85.2978|             1|       m/s|       85.2978|
|            Velocity-Y|             0|             1|       m/s|             0|
|    Velocity Magnitude|       85.2978|             1|       m/s|       85.2978|
+------------------------------------------------------------------------------+
|           Mach Number|             -|             -|         -|           1.7|
+------------------------------------------------------------------------------+
Initialize Jacobian structure (Euler). MG level: 0.

------------------- Numerics Preprocessing ( Zone 0 ) -------------------

----------------- Integration Preprocessing ( Zone 0 ) ------------------

------------------- Iteration Preprocessing ( Zone 0 ) ------------------
Euler/Navier-Stokes/RANS fluid iteration.

------------------------------ Begin Solver -----------------------------

Simulation Run using the Single-zone Driver
+--------------------------------------+
|  Inner_Iter|   Time(sec)|    rms[Rho]|
+--------------------------------------+
|           0|  3.0374e-01|   -0.248506|
|           1|  2.9668e-01|   -0.256318|
|           2|  2.9350e-01|   -0.264597|
|           3|  2.8679e-01|   -0.279957|
|           4|  2.8314e-01|   -0.293640|
|           5|  2.8144e-01|   -0.333248|
|           6|  2.8339e-01|   -0.369043|
|           7|  2.8304e-01|   -0.376592|
|           8|  2.8173e-01|   -0.374607|
|           9|  2.8011e-01|   -0.432919|
|          10|  2.7907e-01|   -0.496528|
|          11|  2.7849e-01|   -0.498576|
|          12|  2.7744e-01|   -0.543038|
|          13|  2.7654e-01|   -0.629894|
|          14|  2.7665e-01|   -0.632675|
|          15|  2.7768e-01|   -0.762445|
|          16|  2.7735e-01|   -0.654965|
|          17|  2.7713e-01|   -0.542252|
|          18|  2.7995e-01|   -0.623405|
|          19|  2.8302e-01|   -0.638069|
|          20|  2.8305e-01|   -0.677883|
|          21|  2.8232e-01|   -0.606750|
|          22|  2.8167e-01|   -0.580950|
|          23|  2.8500e-01|   -0.643029|
|          24|  2.8912e-01|   -0.674230|
|          25|  2.9249e-01|   -0.614119|
|          26|  2.9504e-01|   -0.600440|
|          27|  2.9641e-01|   -0.573161|
|          28|  2.9872e-01|   -0.584786|
|          29|  3.0771e-01|   -0.633310|
|          30|  3.1420e-01|   -0.614298|
|          31|  3.1569e-01|   -0.602943|
|          32|  3.1652e-01|   -0.619427|
|          33|  3.1708e-01|   -0.621520|
|          34|  3.1753e-01|   -0.708447|
|          35|  3.1788e-01|   -0.661265|
|          36|  3.1821e-01|   -0.632777|
|          37|  3.1853e-01|   -0.619925|
|          38|  3.1956e-01|   -0.618073|
|          39|  3.1994e-01|   -0.616874|
|          40|  3.2080e-01|   -0.569875|
|          41|  3.2156e-01|   -0.531340|
|          42|  3.2245e-01|   -0.592799|
|          43|  3.2299e-01|   -0.636037|
|          44|  3.2358e-01|   -0.646567|
|          45|  3.2377e-01|   -0.582753|
|          46|  3.2467e-01|   -0.579313|
|          47|  3.2527e-01|   -0.642941|
|          48|  3.2582e-01|   -0.643168|
|          49|  3.2787e-01|   -0.666418|
|          50|  3.2860e-01|   -0.661042|
|          51|  3.2902e-01|   -0.577284|
|          52|  3.3055e-01|   -0.650285|
|          53|  3.3472e-01|   -0.642077|
|          54|  3.3705e-01|   -0.675821|
|          55|  3.3793e-01|   -0.620119|
|          56|  3.3817e-01|   -0.656031|
|          57|  3.3820e-01|   -0.589435|
|          58|  3.3840e-01|   -0.611499|
|          59|  3.3848e-01|   -0.595555|
|          60|  3.3838e-01|   -0.581827|
|          61|  3.3832e-01|   -0.581262|
|          62|  3.3836e-01|   -0.610253|
|          63|  3.3828e-01|   -0.618044|
|          64|  3.3813e-01|   -0.552007|
|          65|  3.3804e-01|   -0.583108|
|          66|  3.3793e-01|   -0.598576|
|          67|  3.3800e-01|   -0.522995|
|          68|  3.3797e-01|   -0.534129|
|          69|  3.3785e-01|   -0.625099|
|          70|  3.3782e-01|   -0.577721|
|          71|  3.3772e-01|   -0.542449|
|          72|  3.3808e-01|   -0.528223|
|          73|  3.4108e-01|   -0.586369|
|          74|  3.4292e-01|   -0.609704|
|          75|  3.4274e-01|   -0.660664|
|          76|  3.4256e-01|   -0.611427|
|          77|  3.4238e-01|   -0.638345|
|          78|  3.4232e-01|   -0.636234|
|          79|  3.4228e-01|   -0.606073|
|          80|  3.4216e-01|   -0.747589|
|          81|  3.4201e-01|   -0.679936|
|          82|  3.4196e-01|   -0.589512|
|          83|  3.4202e-01|   -0.592900|
|          84|  3.4189e-01|   -0.678629|
|          85|  3.4176e-01|   -0.642599|
|          86|  3.4165e-01|   -0.578421|
|          87|  3.4160e-01|   -0.577101|
|          88|  3.4151e-01|   -0.564331|
|          89|  3.4145e-01|   -0.514615|
|          90|  3.4132e-01|   -0.572043|
|          91|  3.4115e-01|   -0.668592|
|          92|  3.4102e-01|   -0.618852|
|          93|  3.4086e-01|   -0.620107|
|          94|  3.4076e-01|   -0.594900|
|          95|  3.4063e-01|   -0.569654|
|          96|  3.4048e-01|   -0.616274|
|          97|  3.4036e-01|   -0.608825|
|          98|  3.4026e-01|   -0.598436|
|          99|  3.4014e-01|   -0.579242|
|         100|  3.4004e-01|   -0.592758|
+-----------------------------------------------------------------------+
|        File Writing Summary       |              Filename             |
+-----------------------------------------------------------------------+
|SU2 binary restart                 |restart_flow.dat                   |
|Paraview                           |flow.vtu                           |
|Paraview surface                   |surface_flow.vtu                   |
+-----------------------------------------------------------------------+
+--------------------------------------+
|  Inner_Iter|   Time(sec)|    rms[Rho]|
+--------------------------------------+
|         101|  3.4004e-01|   -0.622738|
|         102|  3.3994e-01|   -0.652204|
|         103|  3.3984e-01|   -0.549810|
|         104|  3.3976e-01|   -0.604251|
|         105|  3.3965e-01|   -0.561023|
|         106|  3.3956e-01|   -0.576482|
|         107|  3.3945e-01|   -0.541493|
|         108|  3.3934e-01|   -0.594406|
|         109|  3.3922e-01|   -0.645184|
|         110|  3.3912e-01|   -0.558410|
|         111|  3.3904e-01|   -0.542384|
|         112|  3.3894e-01|   -0.630775|
|         113|  3.3880e-01|   -0.798203|
|         114|  3.3892e-01|   -0.876675|
|         115|  3.4052e-01|   -0.960955|
|         116|  3.4214e-01|   -0.836137|
|         117|  3.4370e-01|   -0.870390|
|         118|  3.4507e-01|   -0.737629|
|         119|  3.4627e-01|   -0.596475|
|         120|  3.4650e-01|   -0.598876|
|         121|  3.4637e-01|   -0.866340|
|         122|  3.4625e-01|   -0.877577|
|         123|  3.4610e-01|   -0.874393|
|         124|  3.4592e-01|   -0.897653|
|         125|  3.4578e-01|   -0.793101|
|         126|  3.4562e-01|   -0.731181|
|         127|  3.4548e-01|   -0.646651|
|         128|  3.4531e-01|   -0.595351|
|         129|  3.4514e-01|   -0.827990|
|         130|  3.4500e-01|   -0.837597|
|         131|  3.4487e-01|   -0.876209|
|         132|  3.4474e-01|   -0.862609|
|         133|  3.4463e-01|   -0.800126|
|         134|  3.4450e-01|   -0.718836|
|         135|  3.4438e-01|   -0.699020|
|         136|  3.4422e-01|   -0.761130|
|         137|  3.4409e-01|   -0.739700|
|         138|  3.4398e-01|   -0.778023|
|         139|  3.4387e-01|   -0.832236|
|         140|  3.4374e-01|   -0.784879|
|         141|  3.4362e-01|   -0.677104|
|         142|  3.4353e-01|   -0.683680|
|         143|  3.4342e-01|   -0.657703|
|         144|  3.4332e-01|   -0.676650|
|         145|  3.4317e-01|   -0.763592|
|         146|  3.4309e-01|   -0.818074|
|         147|  3.4295e-01|   -0.788056|
|         148|  3.4286e-01|   -0.777870|
|         149|  3.4277e-01|   -0.775478|
|         150|  3.4274e-01|   -0.684578|
|         151|  3.4265e-01|   -0.742486|
|         152|  3.4254e-01|   -0.791551|
|         153|  3.4246e-01|   -0.767814|
|         154|  3.4238e-01|   -0.741267|
|         155|  3.4225e-01|   -0.574986|
|         156|  3.4219e-01|   -0.729555|
|         157|  3.4207e-01|   -0.743971|
|         158|  3.4197e-01|   -0.739753|
|         159|  3.4186e-01|   -0.815354|
|         160|  3.4177e-01|   -0.732133|
|         161|  3.4167e-01|   -0.671268|
|         162|  3.4158e-01|   -0.653841|
|         163|  3.4148e-01|   -0.681353|
|         164|  3.4137e-01|   -0.709386|
|         165|  3.4148e-01|   -0.689130|
|         166|  3.4277e-01|   -0.744196|
|         167|  3.4352e-01|   -0.780882|
|         168|  3.4345e-01|   -0.722341|
|         169|  3.4336e-01|   -0.719203|
|         170|  3.4328e-01|   -0.729269|
|         171|  3.4319e-01|   -0.746025|
|         172|  3.4311e-01|   -0.765080|
|         173|  3.4303e-01|   -0.709776|
|         174|  3.4294e-01|   -0.633194|
|         175|  3.4285e-01|   -0.635354|
|         176|  3.4277e-01|   -0.713998|
|         177|  3.4273e-01|   -0.750921|
|         178|  3.4271e-01|   -0.774498|
|         179|  3.4271e-01|   -0.758486|
|         180|  3.4365e-01|   -0.776434|
|         181|  3.4451e-01|   -0.832875|
|         182|  3.4532e-01|   -0.783857|
|         183|  3.4611e-01|   -0.766224|
|         184|  3.4688e-01|   -0.780386|
|         185|  3.4765e-01|   -0.690524|
|         186|  3.4840e-01|   -0.663952|
|         187|  3.4916e-01|   -0.807964|
|         188|  3.4992e-01|   -0.814565|
|         189|  3.5067e-01|   -0.843516|
|         190|  3.5103e-01|   -0.765076|
|         191|  3.5123e-01|   -0.718886|
|         192|  3.5219e-01|   -0.695882|
|         193|  3.5252e-01|   -0.722305|
|         194|  3.5248e-01|   -0.815501|
|         195|  3.5248e-01|   -0.805945|
|         196|  3.5246e-01|   -0.751640|
|         197|  3.5258e-01|   -0.805771|
|         198|  3.5248e-01|   -0.764127|
|         199|  3.5241e-01|   -0.672508|
|         200|  3.5240e-01|   -0.661118|
+-----------------------------------------------------------------------+
|        File Writing Summary       |              Filename             |
+-----------------------------------------------------------------------+
|SU2 binary restart                 |restart_flow.dat                   |
|Paraview                           |flow.vtu                           |
|Paraview surface                   |surface_flow.vtu                   |
+-----------------------------------------------------------------------+
+--------------------------------------+
|  Inner_Iter|   Time(sec)|    rms[Rho]|
+--------------------------------------+
|         201|  3.5236e-01|   -0.619762|
|         202|  3.5239e-01|   -0.779088|
|         203|  3.5239e-01|   -0.791885|
|         204|  3.5230e-01|   -0.854740|
|         205|  3.5229e-01|   -0.799519|
|         206|  3.5310e-01|   -0.696886|
|         207|  3.5383e-01|   -0.675430|
|         208|  3.5381e-01|   -0.713230|
|         209|  3.5374e-01|   -0.767498|
|         210|  3.5369e-01|   -0.747882|
|         211|  3.5370e-01|   -0.682930|
|         212|  3.5361e-01|   -0.610546|
|         213|  3.5354e-01|   -0.610264|
|         214|  3.5387e-01|   -0.707631|
|         215|  3.5379e-01|   -0.713627|
|         216|  3.5368e-01|   -0.756052|
|         217|  3.5357e-01|   -0.762017|
|         218|  3.5346e-01|   -0.727563|
|         219|  3.5339e-01|   -0.734892|
|         220|  3.5339e-01|   -0.744038|
|         221|  3.5336e-01|   -0.754904|
|         222|  3.5333e-01|   -0.767323|
|         223|  3.5336e-01|   -0.781791|
|         224|  3.5395e-01|   -0.821687|
|         225|  3.5409e-01|   -0.824356|
|         226|  3.5403e-01|   -0.830185|
|         227|  3.5394e-01|   -0.835723|
|         228|  3.5384e-01|   -0.835612|
|         229|  3.5373e-01|   -0.794026|
|         230|  3.5364e-01|   -0.713695|
|         231|  3.5352e-01|   -0.739558|
|         232|  3.5341e-01|   -0.788218|
|         233|  3.5333e-01|   -0.772191|
|         234|  3.5322e-01|   -0.749304|
|         235|  3.5313e-01|   -0.794754|
|         236|  3.5307e-01|   -0.806521|
|         237|  3.5296e-01|   -0.766728|
|         238|  3.5285e-01|   -0.849695|
|         239|  3.5332e-01|   -0.830472|
|         240|  3.5326e-01|   -0.806876|
|         241|  3.5316e-01|   -0.828680|
|         242|  3.5305e-01|   -0.833941|
|         243|  3.5294e-01|   -0.739986|
|         244|  3.5284e-01|   -0.685174|
|         245|  3.5274e-01|   -0.651825|
|         246|  3.5263e-01|   -0.705576|
|         247|  3.5253e-01|   -0.773143|
|         248|  3.5242e-01|   -0.833197|
|         249|  3.5231e-01|   -0.793331|
|         250|  3.5219e-01|   -0.790798|
|         251|  3.5245e-01|   -0.795229|
|         252|  3.5325e-01|   -0.769237|
|         253|  3.5351e-01|   -0.705715|
|         254|  3.5348e-01|   -0.728402|
|         255|  3.5343e-01|   -0.812916|
|         256|  3.5340e-01|   -0.808285|
|         257|  3.5329e-01|   -0.681326|
|         258|  3.5326e-01|   -0.748887|
|         259|  3.5320e-01|   -0.765943|
|         260|  3.5311e-01|   -0.782550|
|         261|  3.5302e-01|   -0.770335|
|         262|  3.5292e-01|   -0.721924|
|         263|  3.5283e-01|   -0.686121|
|         264|  3.5276e-01|   -0.631204|
|         265|  3.5268e-01|   -0.656819|
|         266|  3.5260e-01|   -0.696220|
|         267|  3.5251e-01|   -0.752338|
|         268|  3.5242e-01|   -0.723047|
|         269|  3.5232e-01|   -0.750590|
|         270|  3.5222e-01|   -0.788885|
|         271|  3.5220e-01|   -0.751573|
|         272|  3.5212e-01|   -0.692646|
|         273|  3.5207e-01|   -0.705864|
|         274|  3.5199e-01|   -0.772019|
|         275|  3.5190e-01|   -0.794418|
|         276|  3.5182e-01|   -0.703480|
|         277|  3.5173e-01|   -0.709699|
|         278|  3.5163e-01|   -0.775232|
|         279|  3.5154e-01|   -0.787860|
|         280|  3.5176e-01|   -0.786982|
|         281|  3.5248e-01|   -0.780351|
|         282|  3.5319e-01|   -0.774954|
|         283|  3.5353e-01|   -0.793673|
|         284|  3.5344e-01|   -0.766143|
|         285|  3.5335e-01|   -0.798527|
|         286|  3.5326e-01|   -0.789272|
|         287|  3.5316e-01|   -0.728304|
|         288|  3.5307e-01|   -0.712285|
|         289|  3.5297e-01|   -0.741650|
|         290|  3.5289e-01|   -0.812030|
|         291|  3.5279e-01|   -0.821242|
|         292|  3.5269e-01|   -0.788640|
|         293|  3.5261e-01|   -0.764117|
|         294|  3.5252e-01|   -0.743328|
|         295|  3.5243e-01|   -0.775183|
|         296|  3.5242e-01|   -0.791032|
|         297|  3.5301e-01|   -0.806431|
|         298|  3.5340e-01|   -0.769185|
|         299|  3.5332e-01|   -0.780457|
|         300|  3.5323e-01|   -0.812848|
+-----------------------------------------------------------------------+
|        File Writing Summary       |              Filename             |
+-----------------------------------------------------------------------+
|SU2 binary restart                 |restart_flow.dat                   |
|Paraview                           |flow.vtu                           |
|Paraview surface                   |surface_flow.vtu                   |
+-----------------------------------------------------------------------+
+--------------------------------------+
|  Inner_Iter|   Time(sec)|    rms[Rho]|
+--------------------------------------+
|         301|  3.5317e-01|   -0.741381|
|         302|  3.5308e-01|   -0.732162|
|         303|  3.5299e-01|   -0.738542|
|         304|  3.5290e-01|   -0.775690|
|         305|  3.5281e-01|   -0.773949|
|         306|  3.5273e-01|   -0.769012|
|         307|  3.5265e-01|   -0.815227|
|         308|  3.5256e-01|   -0.783711|
|         309|  3.5248e-01|   -0.746080|
|         310|  3.5240e-01|   -0.762083|
|         311|  3.5230e-01|   -0.817498|
|         312|  3.5223e-01|   -0.831607|
|         313|  3.5214e-01|   -0.809389|
|         314|  3.5207e-01|   -0.732178|
|         315|  3.5198e-01|   -0.700864|
|         316|  3.5191e-01|   -0.729509|
|         317|  3.5183e-01|   -0.838177|
|         318|  3.5175e-01|   -0.792365|
|         319|  3.5167e-01|   -0.827121|
|         320|  3.5159e-01|   -0.804767|
|         321|  3.5151e-01|   -0.839360|
|         322|  3.5143e-01|   -0.790726|
|         323|  3.5136e-01|   -0.869127|
|         324|  3.5128e-01|   -0.884575|
|         325|  3.5121e-01|   -0.767607|
|         326|  3.5113e-01|   -0.858926|
|         327|  3.5106e-01|   -0.885782|
|         328|  3.5099e-01|   -0.800723|
|         329|  3.5091e-01|   -0.782903|
|         330|  3.5085e-01|   -0.794916|
|         331|  3.5076e-01|   -0.824375|
|         332|  3.5070e-01|   -0.818421|
|         333|  3.5062e-01|   -0.884641|
|         334|  3.5056e-01|   -0.856870|
|         335|  3.5049e-01|   -0.859807|
|         336|  3.5042e-01|   -0.766907|
|         337|  3.5035e-01|   -0.853561|
|         338|  3.5028e-01|   -0.781424|
|         339|  3.5022e-01|   -0.803414|
|         340|  3.5015e-01|   -0.859664|
|         341|  3.5008e-01|   -0.814006|
|         342|  3.5002e-01|   -0.782737|
|         343|  3.4995e-01|   -0.793133|
|         344|  3.5006e-01|   -0.902141|
|         345|  3.5064e-01|   -0.774252|
|         346|  3.5084e-01|   -0.739431|
|         347|  3.5078e-01|   -0.718650|
|         348|  3.5071e-01|   -0.748397|
|         349|  3.5065e-01|   -0.790418|
|         350|  3.5057e-01|   -0.859437|
|         351|  3.5050e-01|   -0.843016|
|         352|  3.5043e-01|   -0.859711|
|         353|  3.5036e-01|   -0.836165|
|         354|  3.5028e-01|   -0.862428|
|         355|  3.5023e-01|   -0.777889|
|         356|  3.5016e-01|   -0.844422|
|         357|  3.5009e-01|   -0.819535|
|         358|  3.5002e-01|   -0.861241|
|         359|  3.4996e-01|   -0.914583|
|         360|  3.4988e-01|   -0.861959|
|         361|  3.4982e-01|   -0.852429|
|         362|  3.4975e-01|   -0.891659|
|         363|  3.4969e-01|   -0.959136|
|         364|  3.4962e-01|   -0.805894|
|         365|  3.4955e-01|   -0.758793|
|         366|  3.4949e-01|   -0.760433|
|         367|  3.4943e-01|   -0.832003|
|         368|  3.4937e-01|   -0.789636|
|         369|  3.4930e-01|   -0.800992|
|         370|  3.4924e-01|   -0.811604|
|         371|  3.4917e-01|   -0.894658|
|         372|  3.4911e-01|   -0.808461|
|         373|  3.4904e-01|   -0.950816|
|         374|  3.4898e-01|   -0.857862|
|         375|  3.4892e-01|   -0.770647|
|         376|  3.4885e-01|   -0.942308|
|         377|  3.4879e-01|   -0.879767|
|         378|  3.4872e-01|   -0.725641|
|         379|  3.4868e-01|   -0.747471|
|         380|  3.4862e-01|   -0.792199|
|         381|  3.4856e-01|   -0.872335|
|         382|  3.4849e-01|   -0.853119|
|         383|  3.4844e-01|   -0.938247|
|         384|  3.4837e-01|   -0.839265|
|         385|  3.4832e-01|   -0.823243|
|         386|  3.4825e-01|   -0.913664|
|         387|  3.4820e-01|   -0.875882|
|         388|  3.4813e-01|   -0.962102|
|         389|  3.4807e-01|   -0.930949|
|         390|  3.4802e-01|   -0.790082|
|         391|  3.4797e-01|   -0.733539|
|         392|  3.4802e-01|   -0.795055|
|         393|  3.4844e-01|   -0.850502|
|         394|  3.4863e-01|   -0.955605|
|         395|  3.4858e-01|   -0.847185|
|         396|  3.4853e-01|   -0.741181|
|         397|  3.4848e-01|   -1.020684|
|         398|  3.4842e-01|   -0.826212|
|         399|  3.4836e-01|   -0.747212|
|         400|  3.4831e-01|   -0.971122|
+-----------------------------------------------------------------------+
|        File Writing Summary       |              Filename             |
+-----------------------------------------------------------------------+
|SU2 binary restart                 |restart_flow.dat                   |
|Paraview                           |flow.vtu                           |
|Paraview surface                   |surface_flow.vtu                   |
+-----------------------------------------------------------------------+
+--------------------------------------+
|  Inner_Iter|   Time(sec)|    rms[Rho]|
+--------------------------------------+
|         401|  3.4826e-01|   -0.980145|
|         402|  3.4821e-01|   -1.007162|
|         403|  3.4816e-01|   -0.694635|
|         404|  3.4810e-01|   -0.647264|
|         405|  3.4805e-01|   -0.789091|
|         406|  3.4800e-01|   -0.890288|
|         407|  3.4794e-01|   -0.906817|
|         408|  3.4789e-01|   -0.836712|
|         409|  3.4783e-01|   -0.860611|
|         410|  3.4777e-01|   -1.015517|
|         411|  3.4772e-01|   -0.945342|
|         412|  3.4767e-01|   -0.811272|
|         413|  3.4762e-01|   -0.747893|
|         414|  3.4757e-01|   -0.846065|
|         415|  3.4752e-01|   -0.862436|
|         416|  3.4746e-01|   -0.933624|
|         417|  3.4741e-01|   -0.850795|
|         418|  3.4736e-01|   -0.715450|
|         419|  3.4731e-01|   -0.755877|
|         420|  3.4726e-01|   -0.864166|
|         421|  3.4720e-01|   -1.080925|
|         422|  3.4715e-01|   -1.069545|
|         423|  3.4710e-01|   -0.851002|
|         424|  3.4705e-01|   -0.878676|
|         425|  3.4700e-01|   -0.966222|
|         426|  3.4695e-01|   -0.895905|
|         427|  3.4690e-01|   -0.893283|
|         428|  3.4685e-01|   -0.998377|
|         429|  3.4680e-01|   -0.855206|
|         430|  3.4675e-01|   -0.812645|
|         431|  3.4679e-01|   -0.996079|
|         432|  3.4680e-01|   -0.858443|
|         433|  3.4676e-01|   -0.861608|
|         434|  3.4672e-01|   -1.015813|
|         435|  3.4668e-01|   -1.079108|
|         436|  3.4662e-01|   -0.850718|
|         437|  3.4658e-01|   -1.097945|
|         438|  3.4653e-01|   -1.013987|
|         439|  3.4648e-01|   -0.963744|
|         440|  3.4660e-01|   -0.839232|
|         441|  3.4698e-01|   -1.061244|
|         442|  3.4708e-01|   -1.011783|
|         443|  3.4705e-01|   -0.934618|
|         444|  3.4700e-01|   -0.743404|
|         445|  3.4696e-01|   -0.973548|
|         446|  3.4691e-01|   -0.874778|
|         447|  3.4686e-01|   -1.050945|
|         448|  3.4682e-01|   -0.929664|
|         449|  3.4677e-01|   -0.746320|
|         450|  3.4673e-01|   -0.859498|
|         451|  3.4668e-01|   -0.822628|
|         452|  3.4664e-01|   -0.902888|
|         453|  3.4659e-01|   -0.893143|
|         454|  3.4655e-01|   -0.907605|
|         455|  3.4650e-01|   -0.967014|
|         456|  3.4645e-01|   -0.943400|
|         457|  3.4641e-01|   -0.803924|
|         458|  3.4646e-01|   -0.899994|
|         459|  3.4691e-01|   -0.869110|
|         460|  3.4737e-01|   -0.921100|
|         461|  3.4773e-01|   -0.871729|
|         462|  3.4769e-01|   -1.050603|
|         463|  3.4765e-01|   -1.011195|
|         464|  3.4760e-01|   -0.888415|
|         465|  3.4755e-01|   -0.866769|
|         466|  3.4750e-01|   -0.966889|
|         467|  3.4745e-01|   -0.966899|
|         468|  3.4741e-01|   -0.811434|
|         469|  3.4736e-01|   -1.088096|
|         470|  3.4732e-01|   -1.028017|
|         471|  3.4726e-01|   -0.872204|
|         472|  3.4722e-01|   -0.695705|
|         473|  3.4717e-01|   -0.742785|
|         474|  3.4713e-01|   -0.769508|
|         475|  3.4708e-01|   -1.013172|
|         476|  3.4704e-01|   -0.971814|
|         477|  3.4700e-01|   -0.828207|
|         478|  3.4695e-01|   -0.901030|
|         479|  3.4690e-01|   -0.866082|
|         480|  3.4686e-01|   -0.888940|
|         481|  3.4681e-01|   -0.797676|
|         482|  3.4677e-01|   -0.911657|
|         483|  3.4673e-01|   -1.016938|
|         484|  3.4669e-01|   -1.043985|
|         485|  3.4665e-01|   -1.026943|
|         486|  3.4680e-01|   -0.885107|
|         487|  3.4714e-01|   -0.938797|
|         488|  3.4730e-01|   -0.995369|
|         489|  3.4738e-01|   -1.104879|
|         490|  3.4734e-01|   -0.949973|
|         491|  3.4730e-01|   -1.099556|
|         492|  3.4726e-01|   -0.899438|
|         493|  3.4722e-01|   -0.849284|
|         494|  3.4717e-01|   -0.938555|
|         495|  3.4713e-01|   -1.036753|
|         496|  3.4708e-01|   -1.051715|
|         497|  3.4705e-01|   -0.941996|
|         498|  3.4701e-01|   -0.983870|
|         499|  3.4696e-01|   -0.999993|
|         500|  3.4693e-01|   -1.060892|
+-----------------------------------------------------------------------+
|        File Writing Summary       |              Filename             |
+-----------------------------------------------------------------------+
|SU2 binary restart                 |restart_flow.dat                   |
|Paraview                           |flow.vtu                           |
|Paraview surface                   |surface_flow.vtu                   |
+-----------------------------------------------------------------------+
+--------------------------------------+
|  Inner_Iter|   Time(sec)|    rms[Rho]|
+--------------------------------------+
|         501|  3.4689e-01|   -0.911096|
|         502|  3.4685e-01|   -1.024236|
|         503|  3.4681e-01|   -1.000809|
|         504|  3.4677e-01|   -1.035324|
|         505|  3.4673e-01|   -0.854000|
|         506|  3.4671e-01|   -0.855304|
|         507|  3.4667e-01|   -0.793311|
|         508|  3.4663e-01|   -0.948128|
|         509|  3.4659e-01|   -0.913234|
|         510|  3.4655e-01|   -0.985559|
|         511|  3.4651e-01|   -0.965179|
|         512|  3.4647e-01|   -0.906767|
|         513|  3.4644e-01|   -0.889694|
|         514|  3.4640e-01|   -1.021331|
|         515|  3.4636e-01|   -0.814924|
|         516|  3.4632e-01|   -0.951003|
|         517|  3.4628e-01|   -0.956708|
|         518|  3.4624e-01|   -0.921386|
|         519|  3.4620e-01|   -0.969321|
|         520|  3.4617e-01|   -0.750234|
|         521|  3.4613e-01|   -0.753378|
|         522|  3.4610e-01|   -0.847428|
|         523|  3.4605e-01|   -0.855795|
|         524|  3.4602e-01|   -0.948943|
|         525|  3.4598e-01|   -1.081051|
|         526|  3.4595e-01|   -0.940622|
|         527|  3.4591e-01|   -0.908439|
|         528|  3.4587e-01|   -0.896652|
|         529|  3.4584e-01|   -0.952466|
|         530|  3.4580e-01|   -0.915634|
|         531|  3.4577e-01|   -0.909514|
|         532|  3.4573e-01|   -0.880841|
|         533|  3.4572e-01|   -0.913414|
|         534|  3.4606e-01|   -0.850534|
|         535|  3.4630e-01|   -1.072525|
|         536|  3.4630e-01|   -1.089600|
|         537|  3.4627e-01|   -1.030555|
|         538|  3.4623e-01|   -0.786228|
|         539|  3.4620e-01|   -0.892720|
|         540|  3.4615e-01|   -0.956417|
|         541|  3.4612e-01|   -0.851396|
|         542|  3.4608e-01|   -0.871709|
|         543|  3.4604e-01|   -0.869079|
|         544|  3.4600e-01|   -0.944088|
|         545|  3.4597e-01|   -0.913205|
|         546|  3.4593e-01|   -0.786148|
|         547|  3.4590e-01|   -0.978618|
|         548|  3.4586e-01|   -0.954364|
|         549|  3.4582e-01|   -0.922437|
|         550|  3.4578e-01|   -1.033425|
|         551|  3.4575e-01|   -0.948677|
|         552|  3.4571e-01|   -1.090990|
|         553|  3.4568e-01|   -0.990859|
|         554|  3.4564e-01|   -1.001981|
|         555|  3.4560e-01|   -0.940194|
|         556|  3.4557e-01|   -1.060738|
|         557|  3.4554e-01|   -0.988112|
|         558|  3.4552e-01|   -0.937082|
|         559|  3.4549e-01|   -0.753620|
|         560|  3.4545e-01|   -0.937182|
|         561|  3.4541e-01|   -0.957749|
|         562|  3.4537e-01|   -0.916480|
|         563|  3.4534e-01|   -1.022940|
|         564|  3.4530e-01|   -0.981287|
|         565|  3.4527e-01|   -0.898627|
|         566|  3.4523e-01|   -0.916716|
|         567|  3.4520e-01|   -0.996226|
|         568|  3.4517e-01|   -1.015717|
|         569|  3.4514e-01|   -0.898110|
|         570|  3.4510e-01|   -0.818705|
|         571|  3.4507e-01|   -1.027730|
|         572|  3.4504e-01|   -0.936900|
|         573|  3.4501e-01|   -0.830620|
|         574|  3.4498e-01|   -0.874197|
|         575|  3.4494e-01|   -0.906086|
|         576|  3.4491e-01|   -0.960693|
|         577|  3.4487e-01|   -0.878329|
|         578|  3.4485e-01|   -0.878535|
|         579|  3.4481e-01|   -0.922362|
|         580|  3.4478e-01|   -0.928450|
|         581|  3.4480e-01|   -0.851416|
|         582|  3.4512e-01|   -0.907600|
|         583|  3.4533e-01|   -0.881313|
|         584|  3.4531e-01|   -0.950380|
|         585|  3.4528e-01|   -0.968859|
|         586|  3.4525e-01|   -0.954189|
|         587|  3.4522e-01|   -1.036227|
|         588|  3.4518e-01|   -0.942872|
|         589|  3.4516e-01|   -0.908483|
|         590|  3.4512e-01|   -0.936828|
|         591|  3.4510e-01|   -1.100248|
|         592|  3.4506e-01|   -1.016304|
|         593|  3.4504e-01|   -0.983308|
|         594|  3.4500e-01|   -1.099294|
|         595|  3.4498e-01|   -0.845828|
|         596|  3.4494e-01|   -0.987609|
|         597|  3.4492e-01|   -1.144783|
|         598|  3.4488e-01|   -1.063324|
|         599|  3.4485e-01|   -0.995323|
|         600|  3.4483e-01|   -1.048628|
+-----------------------------------------------------------------------+
|        File Writing Summary       |              Filename             |
+-----------------------------------------------------------------------+
|SU2 binary restart                 |restart_flow.dat                   |
|Paraview                           |flow.vtu                           |
|Paraview surface                   |surface_flow.vtu                   |
+-----------------------------------------------------------------------+
+--------------------------------------+
|  Inner_Iter|   Time(sec)|    rms[Rho]|
+--------------------------------------+
|         601|  3.4481e-01|   -1.054172|
|         602|  3.4478e-01|   -1.093387|
|         603|  3.4475e-01|   -0.908738|
|         604|  3.4473e-01|   -0.942809|
|         605|  3.4470e-01|   -0.949456|
|         606|  3.4466e-01|   -0.966664|
|         607|  3.4463e-01|   -1.078718|
|         608|  3.4460e-01|   -1.087583|
|         609|  3.4457e-01|   -0.787377|
|         610|  3.4454e-01|   -0.939415|
|         611|  3.4452e-01|   -1.052449|
|         612|  3.4449e-01|   -0.866248|
|         613|  3.4446e-01|   -0.920236|
|         614|  3.4443e-01|   -0.937921|
|         615|  3.4440e-01|   -0.902326|
|         616|  3.4437e-01|   -1.074308|
|         617|  3.4434e-01|   -0.850431|
|         618|  3.4431e-01|   -0.867838|
|         619|  3.4428e-01|   -1.139573|
|         620|  3.4425e-01|   -1.083835|
|         621|  3.4422e-01|   -0.947372|
|         622|  3.4419e-01|   -0.841224|
|         623|  3.4416e-01|   -0.680941|
|         624|  3.4413e-01|   -0.742701|
|         625|  3.4411e-01|   -0.880334|
|         626|  3.4408e-01|   -0.937868|
|         627|  3.4405e-01|   -1.040905|
|         628|  3.4402e-01|   -1.002758|
|         629|  3.4406e-01|   -0.896538|
|         630|  3.4435e-01|   -0.857961|
|         631|  3.4449e-01|   -1.120296|
|         632|  3.4447e-01|   -0.972475|
|         633|  3.4444e-01|   -0.956778|
|         634|  3.4450e-01|   -1.027695|
|         635|  3.4482e-01|   -0.929100|
|         636|  3.4515e-01|   -0.792610|
|         637|  3.4536e-01|   -1.003538|
|         638|  3.4534e-01|   -1.060103|
|         639|  3.4532e-01|   -0.964205|
|         640|  3.4529e-01|   -0.915730|
|         641|  3.4526e-01|   -0.960443|
|         642|  3.4523e-01|   -1.063899|
|         643|  3.4520e-01|   -0.939634|
|         644|  3.4517e-01|   -0.904494|
|         645|  3.4514e-01|   -0.974266|
|         646|  3.4511e-01|   -1.079293|
|         647|  3.4508e-01|   -0.952849|
|         648|  3.4505e-01|   -0.881777|
|         649|  3.4503e-01|   -0.975687|
|         650|  3.4500e-01|   -1.132792|
|         651|  3.4497e-01|   -1.163789|
|         652|  3.4494e-01|   -0.885630|
|         653|  3.4491e-01|   -0.949977|
|         654|  3.4488e-01|   -0.899477|
|         655|  3.4485e-01|   -0.985966|
|         656|  3.4482e-01|   -0.888309|
|         657|  3.4480e-01|   -1.121237|
|         658|  3.4476e-01|   -0.935203|
|         659|  3.4474e-01|   -1.087877|
|         660|  3.4471e-01|   -1.175958|
|         661|  3.4468e-01|   -0.895828|
|         662|  3.4466e-01|   -0.943283|
|         663|  3.4463e-01|   -1.153206|
|         664|  3.4460e-01|   -0.894536|
|         665|  3.4457e-01|   -0.957189|
|         666|  3.4455e-01|   -1.135384|
|         667|  3.4452e-01|   -0.925578|
|         668|  3.4449e-01|   -0.968851|
|         669|  3.4447e-01|   -0.917912|
|         670|  3.4444e-01|   -1.061186|
|         671|  3.4441e-01|   -0.998719|
|         672|  3.4438e-01|   -0.872265|
|         673|  3.4436e-01|   -0.984744|
|         674|  3.4434e-01|   -0.944498|
|         675|  3.4445e-01|   -1.136597|
|         676|  3.4475e-01|   -0.869674|
|         677|  3.4482e-01|   -0.914685|
|         678|  3.4480e-01|   -0.943782|
|         679|  3.4477e-01|   -0.912763|
|         680|  3.4474e-01|   -0.941950|
|         681|  3.4472e-01|   -0.822519|
|         682|  3.4469e-01|   -1.082398|
|         683|  3.4467e-01|   -0.994799|
|         684|  3.4464e-01|   -0.867495|
|         685|  3.4461e-01|   -0.996532|
|         686|  3.4458e-01|   -0.972569|
|         687|  3.4456e-01|   -0.973732|
|         688|  3.4454e-01|   -0.932599|
|         689|  3.4451e-01|   -0.949146|
|         690|  3.4448e-01|   -1.173185|
|         691|  3.4445e-01|   -0.946215|
|         692|  3.4443e-01|   -0.948012|
|         693|  3.4441e-01|   -0.989220|
|         694|  3.4438e-01|   -0.888853|
|         695|  3.4435e-01|   -1.035367|
|         696|  3.4433e-01|   -0.976752|
|         697|  3.4430e-01|   -0.987256|
|         698|  3.4427e-01|   -1.045501|
|         699|  3.4425e-01|   -0.917186|
|         700|  3.4422e-01|   -0.970273|
+-----------------------------------------------------------------------+
|        File Writing Summary       |              Filename             |
+-----------------------------------------------------------------------+
|SU2 binary restart                 |restart_flow.dat                   |
|Paraview                           |flow.vtu                           |
|Paraview surface                   |surface_flow.vtu                   |
+-----------------------------------------------------------------------+
+--------------------------------------+
|  Inner_Iter|   Time(sec)|    rms[Rho]|
+--------------------------------------+
|         701|  3.4420e-01|   -1.200140|
|         702|  3.4417e-01|   -1.036142|
|         703|  3.4415e-01|   -0.980139|
|         704|  3.4412e-01|   -1.115695|
|         705|  3.4410e-01|   -0.852797|
|         706|  3.4407e-01|   -0.981971|
|         707|  3.4406e-01|   -1.023696|
|         708|  3.4404e-01|   -1.038077|
|         709|  3.4401e-01|   -0.944162|
|         710|  3.4398e-01|   -0.994517|
|         711|  3.4396e-01|   -1.048568|
|         712|  3.4393e-01|   -0.987085|
|         713|  3.4390e-01|   -0.957911|
|         714|  3.4389e-01|   -0.999748|
|         715|  3.4387e-01|   -1.090837|
|         716|  3.4384e-01|   -0.989365|
|         717|  3.4382e-01|   -0.941155|
|         718|  3.4379e-01|   -1.073497|
|         719|  3.4377e-01|   -1.011856|
|         720|  3.4374e-01|   -0.899506|
|         721|  3.4372e-01|   -1.081475|
|         722|  3.4370e-01|   -0.920316|
|         723|  3.4382e-01|   -1.200343|
|         724|  3.4405e-01|   -1.131396|
|         725|  3.4407e-01|   -0.816275|
|         726|  3.4405e-01|   -0.809570|
|         727|  3.4404e-01|   -0.901606|
|         728|  3.4401e-01|   -0.836383|
|         729|  3.4399e-01|   -1.060017|
|         730|  3.4396e-01|   -0.917181|
|         731|  3.4395e-01|   -0.973287|
|         732|  3.4392e-01|   -0.854995|
|         733|  3.4389e-01|   -1.030428|
|         734|  3.4387e-01|   -1.082589|
|         735|  3.4385e-01|   -1.076758|
|         736|  3.4383e-01|   -1.038371|
|         737|  3.4380e-01|   -0.941586|
|         738|  3.4378e-01|   -0.862683|
|         739|  3.4375e-01|   -0.993853|
|         740|  3.4373e-01|   -0.965537|
|         741|  3.4371e-01|   -1.000146|
|         742|  3.4368e-01|   -0.921296|
|         743|  3.4366e-01|   -0.996328|
|         744|  3.4363e-01|   -0.974545|
|         745|  3.4361e-01|   -1.013271|
|         746|  3.4359e-01|   -0.985667|
|         747|  3.4356e-01|   -1.096816|
|         748|  3.4354e-01|   -0.899763|
|         749|  3.4352e-01|   -1.082690|
|         750|  3.4350e-01|   -1.158062|
|         751|  3.4347e-01|   -1.000889|
|         752|  3.4345e-01|   -1.044821|
|         753|  3.4343e-01|   -1.121766|
|         754|  3.4340e-01|   -1.096980|
|         755|  3.4338e-01|   -0.796602|
|         756|  3.4336e-01|   -1.019710|
|         757|  3.4333e-01|   -0.977596|
|         758|  3.4331e-01|   -1.110084|
|         759|  3.4329e-01|   -0.914327|
|         760|  3.4327e-01|   -1.087930|
|         761|  3.4325e-01|   -0.971868|
|         762|  3.4322e-01|   -0.834886|
|         763|  3.4320e-01|   -1.062514|
|         764|  3.4317e-01|   -1.096547|
|         765|  3.4315e-01|   -0.967624|
|         766|  3.4313e-01|   -0.840747|
|         767|  3.4311e-01|   -0.974582|
|         768|  3.4309e-01|   -0.984285|
|         769|  3.4306e-01|   -0.916158|
|         770|  3.4304e-01|   -0.981495|
|         771|  3.4316e-01|   -1.064769|
|         772|  3.4338e-01|   -0.954497|
|         773|  3.4341e-01|   -0.980783|
|         774|  3.4339e-01|   -0.850656|
|         775|  3.4337e-01|   -1.056142|
|         776|  3.4335e-01|   -0.824598|
|         777|  3.4333e-01|   -1.164019|
|         778|  3.4331e-01|   -0.985784|
|         779|  3.4328e-01|   -0.821712|
|         780|  3.4327e-01|   -0.922792|
|         781|  3.4325e-01|   -0.977815|
|         782|  3.4322e-01|   -1.062258|
|         783|  3.4320e-01|   -0.971871|
|         784|  3.4318e-01|   -0.972485|
|         785|  3.4316e-01|   -1.044015|
|         786|  3.4314e-01|   -1.001967|
|         787|  3.4312e-01|   -1.016089|
|         788|  3.4310e-01|   -0.926715|
|         789|  3.4308e-01|   -1.074631|
|         790|  3.4305e-01|   -0.954755|
|         791|  3.4303e-01|   -1.043351|
|         792|  3.4301e-01|   -1.145790|
|         793|  3.4299e-01|   -0.950879|
|         794|  3.4297e-01|   -1.069063|
|         795|  3.4295e-01|   -0.984716|
|         796|  3.4293e-01|   -0.956823|
|         797|  3.4291e-01|   -0.972421|
|         798|  3.4288e-01|   -0.947649|
|         799|  3.4286e-01|   -0.901518|
|         800|  3.4284e-01|   -1.048056|
+-----------------------------------------------------------------------+
|        File Writing Summary       |              Filename             |
+-----------------------------------------------------------------------+
|SU2 binary restart                 |restart_flow.dat                   |
|Paraview                           |flow.vtu                           |
|Paraview surface                   |surface_flow.vtu                   |
+-----------------------------------------------------------------------+
+--------------------------------------+
|  Inner_Iter|   Time(sec)|    rms[Rho]|
+--------------------------------------+
|         801|  3.4282e-01|   -1.019463|
|         802|  3.4281e-01|   -1.063571|
|         803|  3.4279e-01|   -0.976857|
|         804|  3.4276e-01|   -1.083385|
|         805|  3.4274e-01|   -0.938883|
|         806|  3.4272e-01|   -1.015089|
|         807|  3.4271e-01|   -0.926668|
|         808|  3.4268e-01|   -1.031946|
|         809|  3.4267e-01|   -1.002400|
|         810|  3.4265e-01|   -0.957096|
|         811|  3.4263e-01|   -1.025183|
|         812|  3.4261e-01|   -1.173118|
|         813|  3.4259e-01|   -0.951526|
|         814|  3.4275e-01|   -1.154697|
|         815|  3.4296e-01|   -1.020455|
|         816|  3.4317e-01|   -1.038183|
|         817|  3.4337e-01|   -1.084477|
|         818|  3.4358e-01|   -1.112420|
|         819|  3.4363e-01|   -1.138085|
|         820|  3.4361e-01|   -1.038395|
|         821|  3.4359e-01|   -1.089211|
|         822|  3.4357e-01|   -0.998585|
|         823|  3.4355e-01|   -0.958765|
|         824|  3.4353e-01|   -1.124177|
|         825|  3.4351e-01|   -0.934025|
|         826|  3.4349e-01|   -0.980490|
|         827|  3.4347e-01|   -0.858910|
|         828|  3.4345e-01|   -0.771269|
|         829|  3.4343e-01|   -0.803256|
|         830|  3.4341e-01|   -0.860907|
|         831|  3.4339e-01|   -0.998901|
|         832|  3.4337e-01|   -0.961125|
|         833|  3.4335e-01|   -0.967937|
|         834|  3.4334e-01|   -0.961238|
|         835|  3.4332e-01|   -0.897929|
|         836|  3.4330e-01|   -0.999367|
|         837|  3.4328e-01|   -0.991849|
|         838|  3.4326e-01|   -0.973009|
|         839|  3.4324e-01|   -0.870887|
|         840|  3.4322e-01|   -0.961828|
|         841|  3.4320e-01|   -0.977331|
|         842|  3.4318e-01|   -0.923952|
|         843|  3.4316e-01|   -1.089470|
|         844|  3.4314e-01|   -0.930500|
|         845|  3.4312e-01|   -0.898947|
|         846|  3.4310e-01|   -0.956819|
|         847|  3.4308e-01|   -0.894041|
|         848|  3.4307e-01|   -1.134717|
|         849|  3.4305e-01|   -0.976262|
|         850|  3.4303e-01|   -0.959347|
|         851|  3.4301e-01|   -0.871234|
|         852|  3.4299e-01|   -0.993411|
|         853|  3.4297e-01|   -1.001687|
|         854|  3.4295e-01|   -0.948888|
|         855|  3.4293e-01|   -0.966287|
|         856|  3.4291e-01|   -1.008447|
|         857|  3.4289e-01|   -0.860747|
|         858|  3.4287e-01|   -0.968686|
|         859|  3.4285e-01|   -0.864038|
|         860|  3.4283e-01|   -0.865691|
|         861|  3.4282e-01|   -1.119881|
|         862|  3.4280e-01|   -0.926341|
|         863|  3.4278e-01|   -1.055625|
|         864|  3.4276e-01|   -0.963252|
|         865|  3.4292e-01|   -0.912230|
|         866|  3.4314e-01|   -0.983873|
|         867|  3.4319e-01|   -0.879842|
|         868|  3.4318e-01|   -0.948907|
|         869|  3.4316e-01|   -0.934808|
|         870|  3.4314e-01|   -0.871668|
|         871|  3.4312e-01|   -0.861165|
|         872|  3.4311e-01|   -1.004720|
|         873|  3.4309e-01|   -1.105783|
|         874|  3.4307e-01|   -0.971456|
|         875|  3.4305e-01|   -0.935772|
|         876|  3.4303e-01|   -1.206017|
|         877|  3.4301e-01|   -1.069110|
|         878|  3.4299e-01|   -0.958024|
|         879|  3.4298e-01|   -0.986532|
|         880|  3.4296e-01|   -1.165303|
|         881|  3.4294e-01|   -0.825509|
|         882|  3.4292e-01|   -0.966819|
|         883|  3.4290e-01|   -0.857229|
|         884|  3.4288e-01|   -0.929134|
|         885|  3.4286e-01|   -1.049265|
|         886|  3.4284e-01|   -1.106300|
|         887|  3.4283e-01|   -0.932340|
|         888|  3.4280e-01|   -1.008668|
|         889|  3.4279e-01|   -0.924780|
|         890|  3.4277e-01|   -0.906022|
|         891|  3.4275e-01|   -1.186591|
|         892|  3.4274e-01|   -0.967234|
|         893|  3.4272e-01|   -0.919064|
|         894|  3.4270e-01|   -1.045827|
|         895|  3.4268e-01|   -0.897391|
|         896|  3.4267e-01|   -0.959994|
|         897|  3.4266e-01|   -0.810811|
|         898|  3.4264e-01|   -1.047821|
|         899|  3.4262e-01|   -0.975819|
|         900|  3.4260e-01|   -1.057039|
+-----------------------------------------------------------------------+
|        File Writing Summary       |              Filename             |
+-----------------------------------------------------------------------+
|SU2 binary restart                 |restart_flow.dat                   |
|Paraview                           |flow.vtu                           |
|Paraview surface                   |surface_flow.vtu                   |
+-----------------------------------------------------------------------+
+--------------------------------------+
|  Inner_Iter|   Time(sec)|    rms[Rho]|
+--------------------------------------+
|         901|  3.4259e-01|   -0.969631|
|         902|  3.4257e-01|   -0.959699|
|         903|  3.4256e-01|   -0.903280|
|         904|  3.4254e-01|   -0.998606|
|         905|  3.4252e-01|   -1.018196|
|         906|  3.4250e-01|   -0.926595|
|         907|  3.4249e-01|   -1.023987|
|         908|  3.4246e-01|   -0.974805|
|         909|  3.4245e-01|   -0.984029|
|         910|  3.4243e-01|   -0.916583|
|         911|  3.4242e-01|   -1.168301|
|         912|  3.4242e-01|   -0.982572|
|         913|  3.4260e-01|   -0.842195|
|         914|  3.4273e-01|   -1.006220|
|         915|  3.4274e-01|   -0.947734|
|         916|  3.4272e-01|   -0.935026|
|         917|  3.4270e-01|   -0.867017|
|         918|  3.4269e-01|   -1.137644|
|         919|  3.4267e-01|   -0.890951|
|         920|  3.4265e-01|   -0.964523|
|         921|  3.4264e-01|   -1.173333|
|         922|  3.4262e-01|   -0.989887|
|         923|  3.4260e-01|   -0.973931|
|         924|  3.4258e-01|   -1.110412|
|         925|  3.4256e-01|   -1.153986|
|         926|  3.4255e-01|   -1.089289|
|         927|  3.4253e-01|   -1.022331|
|         928|  3.4251e-01|   -1.113607|
|         929|  3.4249e-01|   -1.153104|
|         930|  3.4248e-01|   -0.788169|
|         931|  3.4246e-01|   -0.864477|
|         932|  3.4244e-01|   -0.966404|
|         933|  3.4243e-01|   -0.977522|
|         934|  3.4241e-01|   -0.921351|
|         935|  3.4239e-01|   -1.067080|
|         936|  3.4237e-01|   -1.179231|
|         937|  3.4235e-01|   -0.930412|
|         938|  3.4233e-01|   -0.792623|
|         939|  3.4232e-01|   -1.157210|
|         940|  3.4230e-01|   -1.125785|
|         941|  3.4228e-01|   -0.800626|
|         942|  3.4226e-01|   -1.092646|
|         943|  3.4225e-01|   -1.020547|
|         944|  3.4224e-01|   -0.837175|
|         945|  3.4222e-01|   -0.934892|
|         946|  3.4220e-01|   -0.937213|
|         947|  3.4218e-01|   -0.856002|
|         948|  3.4217e-01|   -0.897056|
|         949|  3.4215e-01|   -0.960566|
|         950|  3.4213e-01|   -0.834717|
|         951|  3.4211e-01|   -0.983094|
|         952|  3.4210e-01|   -0.903703|
|         953|  3.4208e-01|   -1.018740|
|         954|  3.4207e-01|   -1.055023|
|         955|  3.4205e-01|   -1.154053|
|         956|  3.4203e-01|   -0.938187|
|         957|  3.4202e-01|   -0.959670|
|         958|  3.4200e-01|   -1.161201|
|         959|  3.4198e-01|   -0.925567|
|         960|  3.4200e-01|   -1.088247|
|         961|  3.4221e-01|   -0.896298|
|         962|  3.4235e-01|   -0.827093|
|         963|  3.4234e-01|   -0.979738|
|         964|  3.4232e-01|   -1.061677|
|         965|  3.4231e-01|   -0.983286|
|         966|  3.4230e-01|   -1.089244|
|         967|  3.4228e-01|   -0.900257|
|         968|  3.4226e-01|   -0.949294|
|         969|  3.4225e-01|   -0.937186|
|         970|  3.4223e-01|   -0.955316|
|         971|  3.4222e-01|   -0.933562|
|         972|  3.4220e-01|   -0.913484|
|         973|  3.4218e-01|   -0.947359|
|         974|  3.4217e-01|   -1.038440|
|         975|  3.4215e-01|   -0.955316|
|         976|  3.4214e-01|   -1.074192|
|         977|  3.4212e-01|   -1.005920|
|         978|  3.4210e-01|   -0.956834|
|         979|  3.4209e-01|   -0.960514|
|         980|  3.4207e-01|   -0.958269|
|         981|  3.4205e-01|   -1.134741|
|         982|  3.4204e-01|   -1.143712|
|         983|  3.4202e-01|   -0.997349|
|         984|  3.4200e-01|   -1.007351|
|         985|  3.4199e-01|   -0.982298|
|         986|  3.4197e-01|   -0.992811|
|         987|  3.4196e-01|   -1.139353|
|         988|  3.4194e-01|   -1.015632|
|         989|  3.4193e-01|   -0.913759|
|         990|  3.4208e-01|   -1.094172|
|         991|  3.4229e-01|   -1.001312|
|         992|  3.4250e-01|   -0.915155|
|         993|  3.4254e-01|   -0.927459|
|         994|  3.4253e-01|   -1.058318|
|         995|  3.4251e-01|   -0.925612|
|         996|  3.4250e-01|   -1.026868|
|         997|  3.4248e-01|   -0.979618|
|         998|  3.4246e-01|   -0.924876|
|         999|  3.4245e-01|   -1.150774|

----------------------------- Solver Exit -------------------------------

Maximum number of iterations reached (ITER = 1000) before convergence.
+-----------------------------------------------------------------------+
|      Convergence Field     |     Value    |   Criterion  |  Converged |
+-----------------------------------------------------------------------+
|                    rms[Rho]|      -1.15077|         < -11|          No|
+-----------------------------------------------------------------------+
-------------------------------------------------------------------------
+-----------------------------------------------------------------------+
|        File Writing Summary       |              Filename             |
+-----------------------------------------------------------------------+
|SU2 binary restart                 |restart_flow.dat                   |
|Paraview                           |flow.vtu                           |
|Paraview surface                   |surface_flow.vtu                   |
+-----------------------------------------------------------------------+

------------------------- Solver Postprocessing -------------------------
Deleted CNumerics container.
Deleted CIntegration container.
Deleted CSolver container.
Deleted CIteration container.
Deleted CInterface container.
Deleted CGeometry container.
Deleted CFreeFormDefBox class.
Deleted CSurfaceMovement class.
Deleted CVolumetricMovement class.
Deleted CConfig container.
Deleted nInst container.
Deleted COutput class.
-------------------------------------------------------------------------

------------------------- Exit Success (SU2_CFD) ------------------------

