
-------------------------------------------------------------------------
|    ___ _   _ ___                                                      |
|   / __| | | |_  )   Release 7.5.1 "Blackbird"                         |
|   \__ \ |_| |/ /                                                      |
|   |___/\___//___|   Suite (Computational Fluid Dynamics Code)         |
|                                                                       |
-------------------------------------------------------------------------
| SU2 Project Website: https://su2code.github.io                        |
|                                                                       |
| The SU2 Project is maintained by the SU2 Foundation                   |
| (http://su2foundation.org)                                            |
-------------------------------------------------------------------------
| Copyright 2012-2023, SU2 Contributors                                 |
|                                                                       |
| SU2 is free software; you can redistribute it and/or                  |
| modify it under the terms of the GNU Lesser General Public            |
| License as published by the Free Software Foundation; either          |
| version 2.1 of the License, or (at your option) any later version.    |
|                                                                       |
| SU2 is distributed in the hope that it will be useful,                |
| but WITHOUT ANY WARRANTY; without even the implied warranty of        |
| MERCHANTABILITY or FITNESS FOR A PARTICULAR PURPOSE. See the GNU      |
| Lesser General Public License for more details.                       |
|                                                                       |
| You should have received a copy of the GNU Lesser General Public      |
| License along with SU2. If not, see <http://www.gnu.org/licenses/>.   |
-------------------------------------------------------------------------

Parsing config file for zone 0

----------------- Physical Case Definition ( Zone 0 ) -------------------
Compressible Euler equations.
Mach number: 1.7.
Angle of attack (AoA): 0 deg, and angle of sideslip (AoS): 0 deg.
Reading and writing binary SU2 native restart files.
Read flow solution from: solution_flow.dat.
Dimensional simulation.
The reference area is 1 m^2.
The semi-span will be computed using the max y(3D) value.
The reference length is 1 m.
Input mesh file name: mesh0.su2

--------------- Space Numerical Integration ( Zone 0 ) ------------------
Roe (with entropy fix = 0.001) solver for the flow inviscid terms.
Standard Roe without low-dissipation function.
Second order integration in space, with slope limiter.
Venkatakrishnan slope-limiting method, with constant: 0.001.
The reference element size is: 1. 
Gradient for upwind reconstruction: inverse-distance weighted Least-Squares.
Gradient for viscous and source terms: inverse-distance weighted Least-Squares.

--------------- Time Numerical Integration  ( Zone 0 ) ------------------
Local time stepping (steady state simulation).
Euler implicit method for the flow equations.
FGMRES is used for solving the linear system.
Using a ILU(0) preconditioning.
Convergence criteria of the linear solver: 1e-06.
Max number of linear iterations: 20.
CFL adaptation. Factor down: 0.1, factor up: 2,
                lower limit: 0.1, upper limit: 100,
                acceptable linear residual: 0.001.
Courant-Friedrichs-Lewy number:      0.1

------------------ Convergence Criteria  ( Zone 0 ) ---------------------
Maximum number of solver subiterations: 3000.
Begin convergence monitoring at iteration 10.
Residual minimum value: 1e-11.
Cauchy series min. value: 1e-10.
Number of Cauchy elements: 100.
Begin windowed time average at iteration 0.

-------------------- Output Information ( Zone 0 ) ----------------------
File writing frequency: 
+------------------------------------+
|                     File| Frequency|
+------------------------------------+
|                  RESTART|       100|
|                 PARAVIEW|       100|
|         SURFACE_PARAVIEW|       100|
+------------------------------------+
Writing the convergence history file every 1 inner iterations.
Writing the screen convergence history every 1 inner iterations.
The tabular file format is CSV (.csv).
Convergence history file name: history.
Forces breakdown file name: forces_breakdown.dat.
Surface file name: surface_flow.
Volume file name: flow.
Restart file name: restart_flow.dat.

------------- Config File Boundary Information ( Zone 0 ) ---------------
+-----------------------------------------------------------------------+
|                        Marker Type|                        Marker Name|
+-----------------------------------------------------------------------+
|                         Euler wall|                                  4|
|                                   |                                  5|
+-----------------------------------------------------------------------+
|                     Symmetry plane|                                  2|
+-----------------------------------------------------------------------+
|                   Riemann boundary|                                  1|
|                                   |                                  3|
+-----------------------------------------------------------------------+

-------------------- Output Preprocessing ( Zone 0 ) --------------------

WARNING: SURFACE_PRESSURE_DROP can only be computed for at least 2 surfaces (outlet, inlet, ...)

Screen output fields: INNER_ITER, WALL_TIME, RMS_DENSITY
History output group(s): ITER, RMS_RES
Convergence field(s): RMS_DENSITY
Warning: No (valid) fields chosen for time convergence monitoring. Time convergence monitoring inactive.
Volume output fields: COORDINATES, SOLUTION, PRIMITIVE

------------------- Geometry Preprocessing ( Zone 0 ) -------------------
Two dimensional problem.
2614 grid points before partitioning.
5034 volume elements before partitioning.
5 surface markers.
40 boundary elements in index 0 (Marker = 1).
50 boundary elements in index 1 (Marker = 2).
50 boundary elements in index 2 (Marker = 3).
37 boundary elements in index 3 (Marker = 4).
15 boundary elements in index 4 (Marker = 5).
Executing the partitioning functions.
Building the graph adjacency structure.
Calling ParMETIS... graph partitioning complete (209 edge cuts).
Distributing ParMETIS coloring.
Rebalancing vertices.
Rebalancing volume element connectivity.
Rebalancing markers and surface elements.
2828 vertices including ghost points. 
5242 interior elements including halo cells. 
5242 triangles.
Establishing MPI communication patterns.
Setting point connectivity.
Renumbering points (Reverse Cuthill McKee Ordering).
Recomputing point connectivity.
Setting element connectivity.
Checking the numerical grid orientation.
All volume elements are correctly orientend.
There has been a re-orientation of 196 LINE surface elements.
Identifying edges and vertices.
Setting the control volume structure.
Area of the computational grid: 0.906293.
Searching for the closest normal neighbors to the surfaces.
Storing a mapping from global to local point index.
Compute the surface curvature.
Max K: 80.4821. Mean K: 3.11267. Standard deviation K: 14.5031.
Checking for periodicity.
Computing mesh quality statistics for the dual control volumes.
+--------------------------------------------------------------+
|           Mesh Quality Metric|        Minimum|        Maximum|
+--------------------------------------------------------------+
|    Orthogonality Angle (deg.)|        80.2461|        89.9998|
|     CV Face Area Aspect Ratio|        1.00002|        6.79992|
|           CV Sub-Volume Ratio|        1.00001|        2.81985|
+--------------------------------------------------------------+
Finding max control volume width.
Communicating number of neighbors.
Wetted area = 0 m.
Area projection in the x-plane = 0 m, y-plane = 0 m.
Max. coordinate in the x-direction = -1e+10 m, y-direction = -1e+10 m.
Min. coordinate in the x-direction = 1e+10 m, y-direction = 1e+10 m.
Checking if Euler & Symmetry markers are straight/plane:
Boundary marker 4 is a single straight.
Boundary marker 5 is a single straight.
Boundary marker 2 is a single straight.
Computing wall distances.

-------------------- Solver Preprocessing ( Zone 0 ) --------------------
Inviscid flow: Computing density based on free-stream
temperature and pressure using the ideal gas law.
Force coefficients computed using free-stream values.

-- Models:
+------------------------------------------------------------------------------+
|          Viscosity Model|        Conductivity Model|              Fluid Model|
+------------------------------------------------------------------------------+
|                        -|                         -|         CoolProp library|
+------------------------------------------------------------------------------+
-- Fluid properties:
+------------------------------------------------------------------------------+
|                  Name|    Dim. value|    Ref. value|      Unit|Non-dim. value|
+------------------------------------------------------------------------------+
|          Gas Constant|       35.1516|             1|  N.m/kg.K|       35.1516|
|      Spec. Heat Ratio|             -|             -|         -|             -|
|     Critical Pressure|   1.41004e+06|             1|          |   1.41004e+06|
|  Critical Temperature|        564.09|             1|         K|        564.09|
+------------------------------------------------------------------------------+
-- Initial and free-stream conditions:
+------------------------------------------------------------------------------+
|                  Name|    Dim. value|    Ref. value|      Unit|Non-dim. value|
+------------------------------------------------------------------------------+
|       Static Pressure|    1.4999e+06|             1|        Pa|    1.4999e+06|
|               Density|       202.888|             1|    kg/m^3|       202.888|
|           Temperature|       569.844|             1|         K|       569.844|
|          Total Energy|        369670|             1|   m^2/s^2|        369670|
|            Velocity-X|       85.2978|             1|       m/s|       85.2978|
|            Velocity-Y|             0|             1|       m/s|             0|
|    Velocity Magnitude|       85.2978|             1|       m/s|       85.2978|
+------------------------------------------------------------------------------+
|           Mach Number|             -|             -|         -|           1.7|
+------------------------------------------------------------------------------+
Initialize Jacobian structure (Euler). MG level: 0.

------------------- Numerics Preprocessing ( Zone 0 ) -------------------

----------------- Integration Preprocessing ( Zone 0 ) ------------------

------------------- Iteration Preprocessing ( Zone 0 ) ------------------
Euler/Navier-Stokes/RANS fluid iteration.

------------------------------ Begin Solver -----------------------------

Simulation Run using the Single-zone Driver
+--------------------------------------+
|  Inner_Iter|   Time(sec)|    rms[Rho]|
+--------------------------------------+
|           0|  2.5861e-01|   -0.287924|
|           1|  2.5934e-01|   -0.296979|
|           2|  2.6184e-01|   -0.306186|
|           3|  2.6106e-01|   -0.322734|
|           4|  2.6107e-01|   -0.331729|
|           5|  2.6238e-01|   -0.362041|
|           6|  2.6289e-01|   -0.387348|
|           7|  2.6260e-01|   -0.386826|
|           8|  2.6240e-01|   -0.363297|
|           9|  2.6273e-01|   -0.358425|
|          10|  2.6264e-01|   -0.431357|
|          11|  2.6268e-01|   -0.509653|
|          12|  2.6260e-01|   -0.520329|
|          13|  2.6276e-01|   -0.582758|
|          14|  2.6302e-01|   -0.543308|
|          15|  2.6294e-01|   -0.646261|
|          16|  2.6295e-01|   -0.626791|
|          17|  2.6287e-01|   -0.610792|
|          18|  2.6300e-01|   -0.555335|
|          19|  2.6324e-01|   -0.579410|
|          20|  2.6355e-01|   -0.602781|
|          21|  2.6348e-01|   -0.593770|
|          22|  2.6399e-01|   -0.603167|
|          23|  2.6421e-01|   -0.693143|
|          24|  2.6448e-01|   -0.653825|
|          25|  2.6478e-01|   -0.596287|
|          26|  2.6504e-01|   -0.592504|
|          27|  2.6525e-01|   -0.645979|
|          28|  2.6512e-01|   -0.632067|
|          29|  2.6506e-01|   -0.641997|
|          30|  2.6497e-01|   -0.706625|
|          31|  2.6493e-01|   -0.569120|
|          32|  2.6484e-01|   -0.606913|
|          33|  2.6483e-01|   -0.642071|
|          34|  2.6478e-01|   -0.541339|
|          35|  2.6471e-01|   -0.501929|
|          36|  2.6469e-01|   -0.613801|
|          37|  2.6463e-01|   -0.565483|
|          38|  2.6462e-01|   -0.651355|
|          39|  2.6457e-01|   -0.622651|
|          40|  2.6457e-01|   -0.598755|
|          41|  2.6452e-01|   -0.566246|
|          42|  2.6453e-01|   -0.583128|
|          43|  2.6451e-01|   -0.588388|
|          44|  2.6446e-01|   -0.564900|
|          45|  2.6445e-01|   -0.575866|
|          46|  2.6442e-01|   -0.630041|
|          47|  2.6441e-01|   -0.588198|
|          48|  2.6437e-01|   -0.569780|
|          49|  2.6436e-01|   -0.639285|
|          50|  2.6433e-01|   -0.532526|
|          51|  2.6430e-01|   -0.544143|
|          52|  2.6433e-01|   -0.585104|
|          53|  2.6430e-01|   -0.569713|
|          54|  2.6429e-01|   -0.513329|
|          55|  2.6426e-01|   -0.557411|
|          56|  2.6426e-01|   -0.579499|
|          57|  2.6423e-01|   -0.536280|
|          58|  2.6427e-01|   -0.574925|
|          59|  2.6426e-01|   -0.567567|
|          60|  2.6425e-01|   -0.612777|
|          61|  2.6424e-01|   -0.568624|
|          62|  2.6421e-01|   -0.598063|
|          63|  2.6422e-01|   -0.626294|
|          64|  2.6423e-01|   -0.621686|
|          65|  2.6422e-01|   -0.580449|
|          66|  2.6421e-01|   -0.531221|
|          67|  2.6419e-01|   -0.581082|
|          68|  2.6422e-01|   -0.591854|
|          69|  2.6419e-01|   -0.578078|
|          70|  2.6420e-01|   -0.493932|
|          71|  2.6418e-01|   -0.562768|
|          72|  2.6417e-01|   -0.580581|
|          73|  2.6416e-01|   -0.604533|
|          74|  2.6416e-01|   -0.663602|
|          75|  2.6415e-01|   -0.600974|
|          76|  2.6414e-01|   -0.553511|
|          77|  2.6415e-01|   -0.602228|
|          78|  2.6413e-01|   -0.562383|
|          79|  2.6416e-01|   -0.574930|
|          80|  2.6414e-01|   -0.537844|
|          81|  2.6414e-01|   -0.586792|
|          82|  2.6412e-01|   -0.577438|
|          83|  2.6415e-01|   -0.634240|
|          84|  2.6415e-01|   -0.595769|
|          85|  2.6414e-01|   -0.666872|
|          86|  2.6453e-01|   -0.660464|
|          87|  2.6520e-01|   -0.606529|
|          88|  2.6594e-01|   -0.575423|
|          89|  2.6666e-01|   -0.612457|
|          90|  2.6734e-01|   -0.550729|
|          91|  2.6803e-01|   -0.498443|
|          92|  2.6872e-01|   -0.598266|
|          93|  2.6936e-01|   -0.587289|
|          94|  2.6997e-01|   -0.615592|
|          95|  2.7060e-01|   -0.633984|
|          96|  2.7119e-01|   -0.559146|
|          97|  2.7179e-01|   -0.548184|
|          98|  2.7236e-01|   -0.573640|
|          99|  2.7296e-01|   -0.578366|
|         100|  2.7353e-01|   -0.606108|
+-----------------------------------------------------------------------+
|        File Writing Summary       |              Filename             |
+-----------------------------------------------------------------------+
|SU2 binary restart                 |restart_flow.dat                   |
|Paraview                           |flow.vtu                           |
|Paraview surface                   |surface_flow.vtu                   |
+-----------------------------------------------------------------------+
+--------------------------------------+
|  Inner_Iter|   Time(sec)|    rms[Rho]|
+--------------------------------------+
|         101|  2.7412e-01|   -0.596869|
|         102|  2.7466e-01|   -0.568660|
|         103|  2.7518e-01|   -0.543925|
|         104|  2.7569e-01|   -0.578408|
|         105|  2.7617e-01|   -0.592439|
|         106|  2.7665e-01|   -0.785973|
|         107|  2.7712e-01|   -0.650142|
|         108|  2.7759e-01|   -0.636175|
|         109|  2.7808e-01|   -0.609339|
|         110|  2.7855e-01|   -0.578353|
|         111|  2.7899e-01|   -0.596662|
|         112|  2.7941e-01|   -0.741471|
|         113|  2.7983e-01|   -0.712986|
|         114|  2.8025e-01|   -0.692280|
|         115|  2.8063e-01|   -0.668284|
|         116|  2.8104e-01|   -0.630525|
|         117|  2.8143e-01|   -0.666292|
|         118|  2.8177e-01|   -0.702770|
|         119|  2.8215e-01|   -0.705650|
|         120|  2.8252e-01|   -0.701375|
|         121|  2.8289e-01|   -0.752420|
|         122|  2.8325e-01|   -0.712381|
|         123|  2.8358e-01|   -0.674739|
|         124|  2.8392e-01|   -0.655730|
|         125|  2.8423e-01|   -0.699322|
|         126|  2.8456e-01|   -0.719043|
|         127|  2.8486e-01|   -0.757034|
|         128|  2.8518e-01|   -0.752670|
|         129|  2.8547e-01|   -0.718836|
|         130|  2.8579e-01|   -0.641546|
|         131|  2.8606e-01|   -0.665535|
|         132|  2.8637e-01|   -0.737013|
|         133|  2.8669e-01|   -0.799496|
|         134|  2.8699e-01|   -0.697416|
|         135|  2.8729e-01|   -0.623363|
|         136|  2.8758e-01|   -0.666107|
|         137|  2.8786e-01|   -0.621124|
|         138|  2.8814e-01|   -0.719514|
|         139|  2.8841e-01|   -0.792640|
|         140|  2.8866e-01|   -0.801968|
|         141|  2.8894e-01|   -0.908896|
|         142|  2.8918e-01|   -0.797143|
|         143|  2.8945e-01|   -0.786482|
|         144|  2.8971e-01|   -0.718265|
|         145|  2.8997e-01|   -0.644564|
|         146|  2.9021e-01|   -0.726049|
|         147|  2.9046e-01|   -0.750081|
|         148|  2.9070e-01|   -0.759248|
|         149|  2.9094e-01|   -0.803709|
|         150|  2.9117e-01|   -0.758550|
|         151|  2.9140e-01|   -0.728750|
|         152|  2.9161e-01|   -0.812403|
|         153|  2.9181e-01|   -0.706704|
|         154|  2.9206e-01|   -0.712448|
|         155|  2.9229e-01|   -0.660370|
|         156|  2.9251e-01|   -0.593587|
|         157|  2.9270e-01|   -0.726778|
|         158|  2.9291e-01|   -0.751173|
|         159|  2.9311e-01|   -0.759642|
|         160|  2.9332e-01|   -0.700102|
|         161|  2.9350e-01|   -0.683671|
|         162|  2.9369e-01|   -0.569510|
|         163|  2.9389e-01|   -0.592236|
|         164|  2.9405e-01|   -0.700792|
|         165|  2.9425e-01|   -0.725384|
|         166|  2.9441e-01|   -0.735454|
|         167|  2.9461e-01|   -0.763972|
|         168|  2.9477e-01|   -0.802006|
|         169|  2.9496e-01|   -0.663179|
|         170|  2.9513e-01|   -0.575799|
|         171|  2.9531e-01|   -0.680422|
|         172|  2.9547e-01|   -0.693519|
|         173|  2.9566e-01|   -0.700702|
|         174|  2.9584e-01|   -0.778000|
|         175|  2.9599e-01|   -0.803822|
|         176|  2.9617e-01|   -0.671177|
|         177|  2.9635e-01|   -0.680525|
|         178|  2.9655e-01|   -0.671797|
|         179|  2.9671e-01|   -0.606589|
|         180|  2.9687e-01|   -0.673614|
|         181|  2.9701e-01|   -0.686661|
|         182|  2.9715e-01|   -0.758615|
|         183|  2.9732e-01|   -0.705067|
|         184|  2.9745e-01|   -0.742610|
|         185|  2.9761e-01|   -0.831455|
|         186|  2.9774e-01|   -0.836128|
|         187|  2.9790e-01|   -0.734310|
|         188|  2.9802e-01|   -0.751460|
|         189|  2.9818e-01|   -0.664146|
|         190|  2.9832e-01|   -0.662118|
|         191|  2.9847e-01|   -0.682439|
|         192|  2.9860e-01|   -0.699398|
|         193|  2.9873e-01|   -0.717504|
|         194|  2.9887e-01|   -0.818608|
|         195|  2.9899e-01|   -0.664316|
|         196|  2.9914e-01|   -0.613675|
|         197|  2.9926e-01|   -0.622877|
|         198|  2.9940e-01|   -0.618465|
|         199|  2.9951e-01|   -0.717081|
|         200|  2.9965e-01|   -0.731031|
+-----------------------------------------------------------------------+
|        File Writing Summary       |              Filename             |
+-----------------------------------------------------------------------+
|SU2 binary restart                 |restart_flow.dat                   |
|Paraview                           |flow.vtu                           |
|Paraview surface                   |surface_flow.vtu                   |
+-----------------------------------------------------------------------+
+--------------------------------------+
|  Inner_Iter|   Time(sec)|    rms[Rho]|
+--------------------------------------+
|         201|  2.9978e-01|   -0.822976|
|         202|  2.9993e-01|   -0.846904|
|         203|  3.0005e-01|   -0.747124|
|         204|  3.0019e-01|   -0.788018|
|         205|  3.0030e-01|   -0.661846|
|         206|  3.0043e-01|   -0.712561|
|         207|  3.0053e-01|   -0.770282|
|         208|  3.0066e-01|   -0.798647|
|         209|  3.0076e-01|   -0.801269|
|         210|  3.0087e-01|   -0.913981|
|         211|  3.0099e-01|   -0.850474|
|         212|  3.0110e-01|   -0.699420|
|         213|  3.0123e-01|   -0.656669|
|         214|  3.0134e-01|   -0.739663|
|         215|  3.0146e-01|   -0.773170|
|         216|  3.0155e-01|   -0.810917|
|         217|  3.0167e-01|   -0.817732|
|         218|  3.0176e-01|   -0.862794|
|         219|  3.0188e-01|   -0.777079|
|         220|  3.0197e-01|   -0.787726|
|         221|  3.0209e-01|   -0.810433|
|         222|  3.0218e-01|   -0.769330|
|         223|  3.0227e-01|   -0.824859|
|         224|  3.0237e-01|   -0.887794|
|         225|  3.0246e-01|   -0.807108|
|         226|  3.0258e-01|   -0.756049|
|         227|  3.0267e-01|   -0.780920|
|         228|  3.0277e-01|   -0.888599|
|         229|  3.0285e-01|   -0.913674|
|         230|  3.0294e-01|   -0.822980|
|         231|  3.0303e-01|   -0.742986|
|         232|  3.0311e-01|   -0.735114|
|         233|  3.0321e-01|   -0.815664|
|         234|  3.0329e-01|   -0.824006|
|         235|  3.0339e-01|   -0.902862|
|         236|  3.0346e-01|   -0.885470|
|         237|  3.0356e-01|   -0.831864|
|         238|  3.0365e-01|   -0.713164|
|         239|  3.0375e-01|   -0.651700|
|         240|  3.0383e-01|   -0.727171|
|         241|  3.0392e-01|   -0.797590|
|         242|  3.0400e-01|   -0.830122|
|         243|  3.0408e-01|   -0.882129|
|         244|  3.0417e-01|   -0.893261|
|         245|  3.0423e-01|   -0.913580|
|         246|  3.0433e-01|   -0.892907|
|         247|  3.0440e-01|   -0.899116|
|         248|  3.0449e-01|   -0.810172|
|         249|  3.0455e-01|   -0.807561|
|         250|  3.0466e-01|   -0.814280|
|         251|  3.0474e-01|   -0.866758|
|         252|  3.0482e-01|   -0.862421|
|         253|  3.0490e-01|   -0.770769|
|         254|  3.0497e-01|   -0.906304|
|         255|  3.0505e-01|   -0.899445|
|         256|  3.0512e-01|   -0.870085|
|         257|  3.0521e-01|   -0.730142|
|         258|  3.0527e-01|   -0.778668|
|         259|  3.0536e-01|   -0.789441|
|         260|  3.0542e-01|   -0.818454|
|         261|  3.0552e-01|   -0.898407|
|         262|  3.0558e-01|   -0.901115|
|         263|  3.0566e-01|   -0.843700|
|         264|  3.0572e-01|   -0.782843|
|         265|  3.0580e-01|   -0.712914|
|         266|  3.0586e-01|   -0.771002|
|         267|  3.0594e-01|   -0.839864|
|         268|  3.0600e-01|   -0.897719|
|         269|  3.0607e-01|   -0.960405|
|         270|  3.0614e-01|   -0.993793|
|         271|  3.0624e-01|   -0.782701|
|         272|  3.0632e-01|   -0.801026|
|         273|  3.0638e-01|   -0.765472|
|         274|  3.0646e-01|   -0.833189|
|         275|  3.0653e-01|   -0.743541|
|         276|  3.0660e-01|   -0.798487|
|         277|  3.0666e-01|   -0.827844|
|         278|  3.0673e-01|   -0.747966|
|         279|  3.0679e-01|   -0.805656|
|         280|  3.0686e-01|   -0.920225|
|         281|  3.0692e-01|   -0.839038|
|         282|  3.0698e-01|   -0.804005|
|         283|  3.0703e-01|   -0.655544|
|         284|  3.0709e-01|   -0.678302|
|         285|  3.0716e-01|   -0.817158|
|         286|  3.0721e-01|   -0.879315|
|         287|  3.0728e-01|   -0.846260|
|         288|  3.0734e-01|   -0.929149|
|         289|  3.0740e-01|   -0.875981|
|         290|  3.0746e-01|   -0.805975|
|         291|  3.0752e-01|   -0.748725|
|         292|  3.0757e-01|   -0.674821|
|         293|  3.0764e-01|   -0.729407|
|         294|  3.0769e-01|   -0.756852|
|         295|  3.0774e-01|   -0.818728|
|         296|  3.0780e-01|   -0.890000|
|         297|  3.0785e-01|   -0.876343|
|         298|  3.0793e-01|   -0.834006|
|         299|  3.0798e-01|   -0.718671|
|         300|  3.0805e-01|   -0.633241|
+-----------------------------------------------------------------------+
|        File Writing Summary       |              Filename             |
+-----------------------------------------------------------------------+
|SU2 binary restart                 |restart_flow.dat                   |
|Paraview                           |flow.vtu                           |
|Paraview surface                   |surface_flow.vtu                   |
+-----------------------------------------------------------------------+
+--------------------------------------+
|  Inner_Iter|   Time(sec)|    rms[Rho]|
+--------------------------------------+
|         301|  3.0811e-01|   -0.728170|
|         302|  3.0817e-01|   -0.874540|
|         303|  3.0822e-01|   -0.888585|
|         304|  3.0829e-01|   -0.818679|
|         305|  3.0833e-01|   -0.840933|
|         306|  3.0838e-01|   -0.832025|
|         307|  3.0844e-01|   -0.952597|
|         308|  3.0848e-01|   -0.845646|
|         309|  3.0854e-01|   -0.781024|
|         310|  3.0860e-01|   -0.808813|
|         311|  3.0866e-01|   -0.826906|
|         312|  3.0870e-01|   -0.856261|
|         313|  3.0876e-01|   -0.966073|
|         314|  3.0880e-01|   -0.802364|
|         315|  3.0885e-01|   -0.795572|
|         316|  3.0890e-01|   -0.810638|
|         317|  3.0895e-01|   -0.888246|
|         318|  3.0900e-01|   -0.852244|
|         319|  3.0905e-01|   -0.855654|
|         320|  3.0910e-01|   -0.839429|
|         321|  3.0914e-01|   -0.904691|
|         322|  3.0920e-01|   -0.815870|
|         323|  3.0925e-01|   -0.925092|
|         324|  3.0930e-01|   -0.856312|
|         325|  3.0934e-01|   -0.923236|
|         326|  3.0940e-01|   -0.844417|
|         327|  3.0944e-01|   -0.906058|
|         328|  3.0948e-01|   -0.860246|
|         329|  3.0953e-01|   -0.856674|
|         330|  3.0956e-01|   -0.811474|
|         331|  3.0962e-01|   -0.859168|
|         332|  3.0965e-01|   -0.935606|
|         333|  3.0971e-01|   -0.868410|
|         334|  3.0974e-01|   -0.734277|
|         335|  3.0980e-01|   -0.886325|
|         336|  3.0983e-01|   -0.919674|
|         337|  3.0988e-01|   -0.903305|
|         338|  3.0992e-01|   -0.845616|
|         339|  3.0997e-01|   -0.982152|
|         340|  3.1001e-01|   -0.836267|
|         341|  3.1006e-01|   -0.709850|
|         342|  3.1010e-01|   -0.703204|
|         343|  3.1014e-01|   -0.909923|
|         344|  3.1019e-01|   -0.859638|
|         345|  3.1022e-01|   -0.975601|
|         346|  3.1028e-01|   -0.926660|
|         347|  3.1032e-01|   -1.031973|
|         348|  3.1037e-01|   -0.852256|
|         349|  3.1040e-01|   -0.849986|
|         350|  3.1045e-01|   -1.029747|
|         351|  3.1049e-01|   -0.946649|
|         352|  3.1053e-01|   -0.825689|
|         353|  3.1056e-01|   -0.913078|
|         354|  3.1061e-01|   -0.935521|
|         355|  3.1064e-01|   -0.768689|
|         356|  3.1068e-01|   -0.910216|
|         357|  3.1073e-01|   -0.875960|
|         358|  3.1076e-01|   -0.885632|
|         359|  3.1081e-01|   -0.827620|
|         360|  3.1084e-01|   -0.904599|
|         361|  3.1088e-01|   -0.901476|
|         362|  3.1092e-01|   -0.973597|
|         363|  3.1096e-01|   -0.834537|
|         364|  3.1099e-01|   -0.841328|
|         365|  3.1103e-01|   -0.814370|
|         366|  3.1106e-01|   -0.803820|
|         367|  3.1110e-01|   -0.970603|
|         368|  3.1114e-01|   -0.986637|
|         369|  3.1117e-01|   -0.942468|
|         370|  3.1121e-01|   -0.859943|
|         371|  3.1125e-01|   -0.983616|
|         372|  3.1129e-01|   -0.933481|
|         373|  3.1132e-01|   -0.932414|
|         374|  3.1136e-01|   -0.767421|
|         375|  3.1139e-01|   -0.774005|
|         376|  3.1143e-01|   -0.962730|
|         377|  3.1146e-01|   -0.875950|
|         378|  3.1150e-01|   -0.847780|
|         379|  3.1152e-01|   -0.858550|
|         380|  3.1156e-01|   -0.875171|
|         381|  3.1159e-01|   -0.895432|
|         382|  3.1162e-01|   -0.983204|
|         383|  3.1167e-01|   -0.901071|
|         384|  3.1170e-01|   -0.850174|
|         385|  3.1174e-01|   -0.799100|
|         386|  3.1177e-01|   -0.893490|
|         387|  3.1181e-01|   -0.950799|
|         388|  3.1184e-01|   -0.881241|
|         389|  3.1187e-01|   -0.861451|
|         390|  3.1190e-01|   -0.960618|
|         391|  3.1193e-01|   -0.976472|
|         392|  3.1196e-01|   -0.885148|
|         393|  3.1199e-01|   -0.864979|
|         394|  3.1203e-01|   -0.741465|
|         395|  3.1206e-01|   -0.826561|
|         396|  3.1210e-01|   -0.842853|
|         397|  3.1212e-01|   -0.956903|
|         398|  3.1216e-01|   -1.009911|
|         399|  3.1218e-01|   -1.003540|
|         400|  3.1222e-01|   -0.878430|
+-----------------------------------------------------------------------+
|        File Writing Summary       |              Filename             |
+-----------------------------------------------------------------------+
|SU2 binary restart                 |restart_flow.dat                   |
|Paraview                           |flow.vtu                           |
|Paraview surface                   |surface_flow.vtu                   |
+-----------------------------------------------------------------------+
+--------------------------------------+
|  Inner_Iter|   Time(sec)|    rms[Rho]|
+--------------------------------------+
|         401|  3.1226e-01|   -0.848242|
|         402|  3.1231e-01|   -0.703194|
|         403|  3.1235e-01|   -0.684983|
|         404|  3.1237e-01|   -0.761337|
|         405|  3.1241e-01|   -0.783872|
|         406|  3.1243e-01|   -0.822131|
|         407|  3.1247e-01|   -0.769872|
|         408|  3.1250e-01|   -0.802044|
|         409|  3.1253e-01|   -0.790831|
|         410|  3.1256e-01|   -0.736314|
|         411|  3.1259e-01|   -0.853045|
|         412|  3.1262e-01|   -0.887658|
|         413|  3.1266e-01|   -0.800585|
|         414|  3.1269e-01|   -0.904436|
|         415|  3.1271e-01|   -0.820627|
|         416|  3.1274e-01|   -0.915454|
|         417|  3.1277e-01|   -0.846442|
|         418|  3.1281e-01|   -0.933336|
|         419|  3.1284e-01|   -0.797456|
|         420|  3.1287e-01|   -0.866593|
|         421|  3.1290e-01|   -0.791205|
|         422|  3.1293e-01|   -0.873985|
|         423|  3.1295e-01|   -0.829392|
|         424|  3.1298e-01|   -0.757633|
|         425|  3.1301e-01|   -0.922411|
|         426|  3.1304e-01|   -0.801089|
|         427|  3.1306e-01|   -0.782424|
|         428|  3.1309e-01|   -0.897004|
|         429|  3.1312e-01|   -0.801388|
|         430|  3.1314e-01|   -0.788361|
|         431|  3.1318e-01|   -0.813187|
|         432|  3.1320e-01|   -0.762006|
|         433|  3.1323e-01|   -0.820985|
|         434|  3.1325e-01|   -0.781170|
|         435|  3.1328e-01|   -0.824314|
|         436|  3.1330e-01|   -0.726513|
|         437|  3.1333e-01|   -0.893146|
|         438|  3.1336e-01|   -0.942088|
|         439|  3.1338e-01|   -0.815662|
|         440|  3.1341e-01|   -0.941949|
|         441|  3.1343e-01|   -0.936626|
|         442|  3.1347e-01|   -0.892045|
|         443|  3.1349e-01|   -0.825113|
|         444|  3.1352e-01|   -0.821194|
|         445|  3.1354e-01|   -0.868803|
|         446|  3.1357e-01|   -0.852441|
|         447|  3.1359e-01|   -0.945619|
|         448|  3.1362e-01|   -0.896815|
|         449|  3.1364e-01|   -1.047757|
|         450|  3.1367e-01|   -1.051027|
|         451|  3.1369e-01|   -0.895380|
|         452|  3.1371e-01|   -0.891786|
|         453|  3.1374e-01|   -0.888651|
|         454|  3.1375e-01|   -1.078992|
|         455|  3.1381e-01|   -0.986321|
|         456|  3.1385e-01|   -0.842809|
|         457|  3.1390e-01|   -0.875615|
|         458|  3.1393e-01|   -0.915893|
|         459|  3.1402e-01|   -0.936550|
|         460|  3.1409e-01|   -0.887636|
|         461|  3.1423e-01|   -0.789683|
|         462|  3.1463e-01|   -0.758444|
|         463|  3.1511e-01|   -0.837328|
|         464|  3.1557e-01|   -1.041956|
|         465|  3.1603e-01|   -0.892058|
|         466|  3.1647e-01|   -0.792488|
|         467|  3.1690e-01|   -0.893213|
|         468|  3.1732e-01|   -1.043143|
|         469|  3.1771e-01|   -0.874436|
|         470|  3.1816e-01|   -0.843041|
|         471|  3.1853e-01|   -0.996870|
|         472|  3.1868e-01|   -0.944703|
|         473|  3.1873e-01|   -0.837764|
|         474|  3.1879e-01|   -0.928273|
|         475|  3.1887e-01|   -0.954840|
|         476|  3.1894e-01|   -0.866279|
|         477|  3.1899e-01|   -0.720761|
|         478|  3.1904e-01|   -0.739853|
|         479|  3.1911e-01|   -0.826416|
|         480|  3.1914e-01|   -1.001173|
|         481|  3.1916e-01|   -0.901252|
|         482|  3.1919e-01|   -0.965079|
|         483|  3.1932e-01|   -0.983100|
|         484|  3.1971e-01|   -0.899249|
|         485|  3.1981e-01|   -0.989803|
|         486|  3.1987e-01|   -1.039610|
|         487|  3.1994e-01|   -0.845353|
|         488|  3.2000e-01|   -1.017395|
|         489|  3.2002e-01|   -0.942428|
|         490|  3.2004e-01|   -1.036657|
|         491|  3.2005e-01|   -0.998453|
|         492|  3.2007e-01|   -0.906783|
|         493|  3.2007e-01|   -1.014600|
|         494|  3.2007e-01|   -0.951890|
|         495|  3.2008e-01|   -0.886053|
|         496|  3.2009e-01|   -0.768751|
|         497|  3.2009e-01|   -0.853802|
|         498|  3.2012e-01|   -0.969431|
|         499|  3.2014e-01|   -0.987612|
|         500|  3.2018e-01|   -0.838057|
+-----------------------------------------------------------------------+
|        File Writing Summary       |              Filename             |
+-----------------------------------------------------------------------+
|SU2 binary restart                 |restart_flow.dat                   |
|Paraview                           |flow.vtu                           |
|Paraview surface                   |surface_flow.vtu                   |
+-----------------------------------------------------------------------+
+--------------------------------------+
|  Inner_Iter|   Time(sec)|    rms[Rho]|
+--------------------------------------+
|         501|  3.2021e-01|   -0.918414|
|         502|  3.2024e-01|   -0.836355|
|         503|  3.2031e-01|   -0.854783|
|         504|  3.2036e-01|   -0.751061|
|         505|  3.2039e-01|   -0.776867|
|         506|  3.2045e-01|   -0.818751|
|         507|  3.2052e-01|   -0.876993|
|         508|  3.2054e-01|   -0.874897|
|         509|  3.2056e-01|   -0.899277|
|         510|  3.2058e-01|   -0.900122|
|         511|  3.2061e-01|   -0.987057|
|         512|  3.2074e-01|   -0.972537|
|         513|  3.2080e-01|   -0.880384|
|         514|  3.2082e-01|   -0.834910|
|         515|  3.2083e-01|   -0.943498|
|         516|  3.2084e-01|   -0.965844|
|         517|  3.2086e-01|   -1.008535|
|         518|  3.2088e-01|   -0.988341|
|         519|  3.2090e-01|   -0.821746|
|         520|  3.2092e-01|   -0.977818|
|         521|  3.2098e-01|   -0.957795|
|         522|  3.2101e-01|   -0.945789|
|         523|  3.2105e-01|   -0.886146|
|         524|  3.2107e-01|   -0.936485|
|         525|  3.2120e-01|   -1.002966|
|         526|  3.2159e-01|   -0.891173|
|         527|  3.2169e-01|   -0.847541|
|         528|  3.2171e-01|   -0.944977|
|         529|  3.2173e-01|   -1.066679|
|         530|  3.2175e-01|   -1.028493|
|         531|  3.2177e-01|   -0.952469|
|         532|  3.2179e-01|   -0.804314|
|         533|  3.2181e-01|   -0.794553|
|         534|  3.2182e-01|   -0.879221|
|         535|  3.2184e-01|   -0.927228|
|         536|  3.2185e-01|   -1.072962|
|         537|  3.2186e-01|   -0.975617|
|         538|  3.2188e-01|   -0.835647|
|         539|  3.2189e-01|   -0.958163|
|         540|  3.2192e-01|   -1.072574|
|         541|  3.2195e-01|   -0.944440|
|         542|  3.2206e-01|   -0.928175|
|         543|  3.2208e-01|   -0.930918|
|         544|  3.2214e-01|   -0.983644|
|         545|  3.2230e-01|   -0.877367|
|         546|  3.2236e-01|   -0.879080|
|         547|  3.2240e-01|   -0.874959|
|         548|  3.2242e-01|   -1.020540|
|         549|  3.2244e-01|   -0.850311|
|         550|  3.2246e-01|   -1.054389|
|         551|  3.2248e-01|   -0.890325|
|         552|  3.2251e-01|   -0.963869|
|         553|  3.2252e-01|   -1.031929|
|         554|  3.2256e-01|   -0.896836|
|         555|  3.2258e-01|   -1.023143|
|         556|  3.2264e-01|   -0.899103|
|         557|  3.2270e-01|   -0.987725|
|         558|  3.2273e-01|   -0.853744|
|         559|  3.2280e-01|   -1.030409|
|         560|  3.2284e-01|   -0.914334|
|         561|  3.2286e-01|   -1.031836|
|         562|  3.2289e-01|   -0.936281|
|         563|  3.2291e-01|   -0.907107|
|         564|  3.2291e-01|   -0.896208|
|         565|  3.2292e-01|   -1.021592|
|         566|  3.2292e-01|   -0.932099|
|         567|  3.2297e-01|   -0.900100|
|         568|  3.2300e-01|   -0.822634|
|         569|  3.2308e-01|   -1.041160|
|         570|  3.2309e-01|   -0.961976|
|         571|  3.2309e-01|   -1.002431|
|         572|  3.2309e-01|   -0.920662|
|         573|  3.2309e-01|   -0.976412|
|         574|  3.2312e-01|   -0.940582|
|         575|  3.2314e-01|   -0.901371|
|         576|  3.2315e-01|   -0.978574|
|         577|  3.2316e-01|   -1.038177|
|         578|  3.2323e-01|   -0.929264|
|         579|  3.2324e-01|   -0.736080|
|         580|  3.2325e-01|   -0.952514|
|         581|  3.2325e-01|   -0.901581|
|         582|  3.2325e-01|   -0.905549|
|         583|  3.2328e-01|   -0.972653|
|         584|  3.2329e-01|   -0.950420|
|         585|  3.2331e-01|   -1.036586|
|         586|  3.2333e-01|   -0.928900|
|         587|  3.2334e-01|   -1.044252|
|         588|  3.2335e-01|   -0.979876|
|         589|  3.2337e-01|   -0.837886|
|         590|  3.2337e-01|   -0.905084|
|         591|  3.2339e-01|   -0.955607|
|         592|  3.2340e-01|   -0.911187|
|         593|  3.2347e-01|   -0.983404|
|         594|  3.2347e-01|   -0.944011|
|         595|  3.2347e-01|   -0.989227|
|         596|  3.2350e-01|   -0.907152|
|         597|  3.2353e-01|   -0.970954|
|         598|  3.2355e-01|   -0.996766|
|         599|  3.2356e-01|   -1.009009|
|         600|  3.2357e-01|   -0.904783|
+-----------------------------------------------------------------------+
|        File Writing Summary       |              Filename             |
+-----------------------------------------------------------------------+
|SU2 binary restart                 |restart_flow.dat                   |
|Paraview                           |flow.vtu                           |
|Paraview surface                   |surface_flow.vtu                   |
+-----------------------------------------------------------------------+
+--------------------------------------+
|  Inner_Iter|   Time(sec)|    rms[Rho]|
+--------------------------------------+
|         601|  3.2361e-01|   -0.897631|
|         602|  3.2363e-01|   -0.957617|
|         603|  3.2365e-01|   -0.960030|
|         604|  3.2367e-01|   -0.909868|
|         605|  3.2371e-01|   -0.984811|
|         606|  3.2372e-01|   -0.829414|
|         607|  3.2373e-01|   -0.784295|
|         608|  3.2379e-01|   -0.798464|
|         609|  3.2380e-01|   -0.803793|
|         610|  3.2381e-01|   -0.988365|
|         611|  3.2384e-01|   -0.879734|
|         612|  3.2385e-01|   -0.904176|
|         613|  3.2385e-01|   -0.904341|
|         614|  3.2386e-01|   -0.900822|
|         615|  3.2386e-01|   -0.919775|
|         616|  3.2387e-01|   -0.984643|
|         617|  3.2387e-01|   -1.020918|
|         618|  3.2387e-01|   -0.938336|
|         619|  3.2387e-01|   -0.999934|
|         620|  3.2393e-01|   -1.000937|
|         621|  3.2405e-01|   -0.934252|
|         622|  3.2407e-01|   -1.016256|
|         623|  3.2408e-01|   -0.945165|
|         624|  3.2409e-01|   -1.027509|
|         625|  3.2409e-01|   -1.016342|
|         626|  3.2410e-01|   -0.900118|
|         627|  3.2410e-01|   -0.993549|
|         628|  3.2411e-01|   -0.999471|
|         629|  3.2411e-01|   -0.936449|
|         630|  3.2412e-01|   -0.961973|
|         631|  3.2414e-01|   -0.965912|
|         632|  3.2417e-01|   -0.985567|
|         633|  3.2418e-01|   -0.979185|
|         634|  3.2419e-01|   -0.859836|
|         635|  3.2420e-01|   -0.991053|
|         636|  3.2421e-01|   -0.984859|
|         637|  3.2422e-01|   -0.935162|
|         638|  3.2424e-01|   -1.018489|
|         639|  3.2428e-01|   -0.996983|
|         640|  3.2431e-01|   -1.010149|
|         641|  3.2433e-01|   -0.950799|
|         642|  3.2433e-01|   -0.990768|
|         643|  3.2434e-01|   -0.941605|
|         644|  3.2435e-01|   -1.038769|
|         645|  3.2435e-01|   -1.017844|
|         646|  3.2435e-01|   -0.969956|
|         647|  3.2435e-01|   -1.045285|
|         648|  3.2435e-01|   -1.018099|
|         649|  3.2435e-01|   -0.948705|
|         650|  3.2435e-01|   -1.000155|
|         651|  3.2435e-01|   -0.974515|
|         652|  3.2436e-01|   -1.036066|
|         653|  3.2435e-01|   -1.043687|
|         654|  3.2436e-01|   -0.986241|
|         655|  3.2436e-01|   -0.986742|
|         656|  3.2437e-01|   -0.935885|
|         657|  3.2436e-01|   -0.934212|
|         658|  3.2437e-01|   -1.005472|
|         659|  3.2437e-01|   -1.049146|
|         660|  3.2437e-01|   -0.971335|
|         661|  3.2437e-01|   -1.021069|
|         662|  3.2437e-01|   -1.007806|
|         663|  3.2437e-01|   -1.021707|
|         664|  3.2437e-01|   -1.057562|
|         665|  3.2437e-01|   -0.952354|
|         666|  3.2437e-01|   -0.925230|
|         667|  3.2438e-01|   -1.029522|
|         668|  3.2438e-01|   -1.061806|
|         669|  3.2438e-01|   -0.965313|
|         670|  3.2438e-01|   -0.940917|
|         671|  3.2439e-01|   -0.980504|
|         672|  3.2439e-01|   -0.986859|
|         673|  3.2439e-01|   -1.045711|
|         674|  3.2439e-01|   -0.980070|
|         675|  3.2439e-01|   -1.062295|
|         676|  3.2439e-01|   -1.014384|
|         677|  3.2438e-01|   -0.968650|
|         678|  3.2439e-01|   -0.966771|
|         679|  3.2439e-01|   -0.963425|
|         680|  3.2440e-01|   -0.992035|
|         681|  3.2439e-01|   -0.930557|
|         682|  3.2440e-01|   -0.993155|
|         683|  3.2439e-01|   -1.027051|
|         684|  3.2440e-01|   -0.983848|
|         685|  3.2439e-01|   -0.990704|
|         686|  3.2440e-01|   -0.960654|
|         687|  3.2440e-01|   -1.054072|
|         688|  3.2439e-01|   -0.966986|
|         689|  3.2439e-01|   -0.988116|
|         690|  3.2439e-01|   -1.014591|
|         691|  3.2440e-01|   -1.071334|
|         692|  3.2440e-01|   -1.013227|
|         693|  3.2441e-01|   -1.012381|
|         694|  3.2441e-01|   -0.969446|
|         695|  3.2441e-01|   -1.032745|
|         696|  3.2441e-01|   -0.964927|
|         697|  3.2441e-01|   -0.919270|
|         698|  3.2441e-01|   -0.948275|
|         699|  3.2441e-01|   -1.052624|
|         700|  3.2441e-01|   -1.078689|
+-----------------------------------------------------------------------+
|        File Writing Summary       |              Filename             |
+-----------------------------------------------------------------------+
|SU2 binary restart                 |restart_flow.dat                   |
|Paraview                           |flow.vtu                           |
|Paraview surface                   |surface_flow.vtu                   |
+-----------------------------------------------------------------------+
+--------------------------------------+
|  Inner_Iter|   Time(sec)|    rms[Rho]|
+--------------------------------------+
|         701|  3.2442e-01|   -0.962111|
|         702|  3.2442e-01|   -1.038188|
|         703|  3.2443e-01|   -1.052388|
|         704|  3.2443e-01|   -1.059348|
|         705|  3.2443e-01|   -1.014104|
|         706|  3.2443e-01|   -0.959444|
|         707|  3.2443e-01|   -1.064694|
|         708|  3.2443e-01|   -0.918327|
|         709|  3.2443e-01|   -0.850585|
|         710|  3.2443e-01|   -0.811839|
|         711|  3.2443e-01|   -0.878648|
|         712|  3.2443e-01|   -0.961724|
|         713|  3.2444e-01|   -1.048763|
|         714|  3.2444e-01|   -0.990630|
|         715|  3.2445e-01|   -0.939573|
|         716|  3.2444e-01|   -0.984061|
|         717|  3.2445e-01|   -1.005567|
|         718|  3.2445e-01|   -1.033344|
|         719|  3.2446e-01|   -0.971014|
|         720|  3.2447e-01|   -0.954392|
|         721|  3.2448e-01|   -0.933912|
|         722|  3.2449e-01|   -1.092238|
|         723|  3.2450e-01|   -1.072817|
|         724|  3.2451e-01|   -1.103342|
|         725|  3.2451e-01|   -1.080976|
|         726|  3.2451e-01|   -1.083851|
|         727|  3.2452e-01|   -1.047722|
|         728|  3.2453e-01|   -1.014470|
|         729|  3.2453e-01|   -1.059362|
|         730|  3.2454e-01|   -1.023371|
|         731|  3.2455e-01|   -1.063499|
|         732|  3.2456e-01|   -0.988215|
|         733|  3.2458e-01|   -1.028503|
|         734|  3.2459e-01|   -1.067807|
|         735|  3.2461e-01|   -1.067725|
|         736|  3.2463e-01|   -0.963127|
|         737|  3.2464e-01|   -1.021051|
|         738|  3.2464e-01|   -1.060497|
|         739|  3.2465e-01|   -1.066409|
|         740|  3.2465e-01|   -1.123180|
|         741|  3.2465e-01|   -0.986044|
|         742|  3.2465e-01|   -1.065755|
|         743|  3.2465e-01|   -1.019435|
|         744|  3.2465e-01|   -1.028663|
|         745|  3.2465e-01|   -1.086985|
|         746|  3.2465e-01|   -1.122484|
|         747|  3.2465e-01|   -0.981344|
|         748|  3.2465e-01|   -1.090498|
|         749|  3.2466e-01|   -1.080208|
|         750|  3.2465e-01|   -1.084527|
|         751|  3.2466e-01|   -1.130325|
|         752|  3.2466e-01|   -1.026589|
|         753|  3.2466e-01|   -1.109102|
|         754|  3.2465e-01|   -1.103760|
|         755|  3.2465e-01|   -1.050572|
|         756|  3.2465e-01|   -1.143388|
|         757|  3.2465e-01|   -1.013674|
|         758|  3.2465e-01|   -0.986561|
|         759|  3.2465e-01|   -1.101136|
|         760|  3.2465e-01|   -1.095008|
|         761|  3.2466e-01|   -1.056630|
|         762|  3.2466e-01|   -1.092091|
|         763|  3.2466e-01|   -1.096734|
|         764|  3.2466e-01|   -1.064253|
|         765|  3.2466e-01|   -1.115138|
|         766|  3.2467e-01|   -1.028639|
|         767|  3.2467e-01|   -1.065187|
|         768|  3.2468e-01|   -1.097265|
|         769|  3.2469e-01|   -1.152594|
|         770|  3.2468e-01|   -1.032512|
|         771|  3.2469e-01|   -1.137237|
|         772|  3.2469e-01|   -0.942209|
|         773|  3.2469e-01|   -1.123176|
|         774|  3.2469e-01|   -1.078233|
|         775|  3.2469e-01|   -0.982111|
|         776|  3.2469e-01|   -1.109207|
|         777|  3.2470e-01|   -1.142587|
|         778|  3.2469e-01|   -1.070234|
|         779|  3.2470e-01|   -0.907731|
|         780|  3.2470e-01|   -1.147457|
|         781|  3.2469e-01|   -1.045722|
|         782|  3.2470e-01|   -1.123709|
|         783|  3.2469e-01|   -0.936107|
|         784|  3.2470e-01|   -1.162639|
|         785|  3.2470e-01|   -1.133524|
|         786|  3.2470e-01|   -1.132239|
|         787|  3.2470e-01|   -0.945067|
|         788|  3.2470e-01|   -1.120157|
|         789|  3.2472e-01|   -1.173776|
|         790|  3.2472e-01|   -1.053518|
|         791|  3.2472e-01|   -1.046375|
|         792|  3.2472e-01|   -1.174727|
|         793|  3.2474e-01|   -1.034767|
|         794|  3.2476e-01|   -1.048666|
|         795|  3.2478e-01|   -1.164699|
|         796|  3.2480e-01|   -1.130960|
|         797|  3.2481e-01|   -1.147670|
|         798|  3.2481e-01|   -1.016315|
|         799|  3.2481e-01|   -1.164981|
|         800|  3.2482e-01|   -1.190755|
+-----------------------------------------------------------------------+
|        File Writing Summary       |              Filename             |
+-----------------------------------------------------------------------+
|SU2 binary restart                 |restart_flow.dat                   |
|Paraview                           |flow.vtu                           |
|Paraview surface                   |surface_flow.vtu                   |
+-----------------------------------------------------------------------+
+--------------------------------------+
|  Inner_Iter|   Time(sec)|    rms[Rho]|
+--------------------------------------+
|         801|  3.2482e-01|   -1.046263|
|         802|  3.2482e-01|   -1.021087|
|         803|  3.2482e-01|   -1.063366|
|         804|  3.2482e-01|   -1.034246|
|         805|  3.2483e-01|   -1.161689|
|         806|  3.2483e-01|   -1.071057|
|         807|  3.2483e-01|   -1.043177|
|         808|  3.2483e-01|   -1.131212|
|         809|  3.2484e-01|   -1.005388|
|         810|  3.2484e-01|   -0.879774|
|         811|  3.2484e-01|   -1.062143|
|         812|  3.2484e-01|   -1.050644|
|         813|  3.2485e-01|   -1.060943|
|         814|  3.2484e-01|   -0.993453|
|         815|  3.2485e-01|   -1.164764|
|         816|  3.2485e-01|   -1.157491|
|         817|  3.2485e-01|   -0.779539|
|         818|  3.2485e-01|   -1.135488|
|         819|  3.2485e-01|   -1.010488|
|         820|  3.2485e-01|   -1.174475|
|         821|  3.2486e-01|   -1.154022|
|         822|  3.2486e-01|   -0.871455|
|         823|  3.2486e-01|   -1.132521|
|         824|  3.2486e-01|   -0.949957|
|         825|  3.2486e-01|   -1.093313|
|         826|  3.2486e-01|   -1.170401|
|         827|  3.2486e-01|   -1.063174|
|         828|  3.2486e-01|   -1.080128|
|         829|  3.2487e-01|   -1.169539|
|         830|  3.2487e-01|   -0.958310|
|         831|  3.2487e-01|   -1.145734|
|         832|  3.2487e-01|   -1.097514|
|         833|  3.2497e-01|   -1.143059|
|         834|  3.2515e-01|   -1.117306|
|         835|  3.2515e-01|   -1.186559|
|         836|  3.2515e-01|   -1.146574|
|         837|  3.2516e-01|   -1.070026|
|         838|  3.2517e-01|   -1.049679|
|         839|  3.2518e-01|   -1.168535|
|         840|  3.2519e-01|   -1.046203|
|         841|  3.2520e-01|   -1.147659|
|         842|  3.2521e-01|   -1.165664|
|         843|  3.2521e-01|   -1.070865|
|         844|  3.2523e-01|   -1.132035|
|         845|  3.2524e-01|   -1.211928|
|         846|  3.2526e-01|   -0.883942|
|         847|  3.2527e-01|   -1.139957|
|         848|  3.2527e-01|   -1.200621|
|         849|  3.2528e-01|   -1.080898|
|         850|  3.2529e-01|   -1.186811|
|         851|  3.2529e-01|   -1.091743|
|         852|  3.2529e-01|   -1.032401|
|         853|  3.2530e-01|   -1.116787|
|         854|  3.2530e-01|   -1.196421|
|         855|  3.2530e-01|   -1.154768|
|         856|  3.2530e-01|   -1.016294|
|         857|  3.2531e-01|   -1.082937|
|         858|  3.2530e-01|   -1.120249|
|         859|  3.2531e-01|   -1.198777|
|         860|  3.2531e-01|   -1.035242|
|         861|  3.2532e-01|   -1.060949|
|         862|  3.2533e-01|   -0.993401|
|         863|  3.2533e-01|   -1.017320|
|         864|  3.2533e-01|   -1.100704|
|         865|  3.2534e-01|   -0.991384|
|         866|  3.2534e-01|   -0.991382|
|         867|  3.2535e-01|   -1.163030|
|         868|  3.2536e-01|   -1.168899|
|         869|  3.2537e-01|   -1.026714|
|         870|  3.2537e-01|   -1.044904|
|         871|  3.2538e-01|   -1.086878|
|         872|  3.2538e-01|   -1.173993|
|         873|  3.2539e-01|   -1.167348|
|         874|  3.2540e-01|   -0.841535|
|         875|  3.2540e-01|   -1.126234|
|         876|  3.2540e-01|   -1.041809|
|         877|  3.2541e-01|   -0.913415|
|         878|  3.2542e-01|   -1.195978|
|         879|  3.2542e-01|   -1.041404|
|         880|  3.2543e-01|   -1.002808|
|         881|  3.2544e-01|   -1.068288|
|         882|  3.2545e-01|   -1.211588|
|         883|  3.2545e-01|   -1.037565|
|         884|  3.2545e-01|   -1.170957|
|         885|  3.2546e-01|   -1.121369|
|         886|  3.2546e-01|   -0.898142|
|         887|  3.2547e-01|   -1.203881|
|         888|  3.2548e-01|   -1.123193|
|         889|  3.2548e-01|   -0.950850|
|         890|  3.2549e-01|   -1.017562|
|         891|  3.2549e-01|   -1.067469|
|         892|  3.2550e-01|   -1.060727|
|         893|  3.2550e-01|   -1.005491|
|         894|  3.2552e-01|   -1.053707|
|         895|  3.2555e-01|   -1.131368|
|         896|  3.2557e-01|   -1.075280|
|         897|  3.2558e-01|   -1.049172|
|         898|  3.2558e-01|   -1.187470|
|         899|  3.2558e-01|   -1.168192|
|         900|  3.2558e-01|   -0.845332|
+-----------------------------------------------------------------------+
|        File Writing Summary       |              Filename             |
+-----------------------------------------------------------------------+
|SU2 binary restart                 |restart_flow.dat                   |
|Paraview                           |flow.vtu                           |
|Paraview surface                   |surface_flow.vtu                   |
+-----------------------------------------------------------------------+
+--------------------------------------+
|  Inner_Iter|   Time(sec)|    rms[Rho]|
+--------------------------------------+
|         901|  3.2559e-01|   -1.202643|
|         902|  3.2559e-01|   -1.074571|
|         903|  3.2559e-01|   -1.057786|
|         904|  3.2559e-01|   -1.008280|
|         905|  3.2559e-01|   -1.129521|
|         906|  3.2562e-01|   -1.158812|
|         907|  3.2588e-01|   -0.931522|
|         908|  3.2592e-01|   -1.019234|
|         909|  3.2593e-01|   -1.155779|
|         910|  3.2593e-01|   -1.187538|
|         911|  3.2593e-01|   -1.082140|
|         912|  3.2594e-01|   -1.134095|
|         913|  3.2594e-01|   -1.119273|
|         914|  3.2594e-01|   -1.124546|
|         915|  3.2607e-01|   -0.978930|
|         916|  3.2630e-01|   -1.145400|
|         917|  3.2654e-01|   -1.167482|
|         918|  3.2664e-01|   -1.207300|
|         919|  3.2678e-01|   -1.046916|
|         920|  3.2703e-01|   -1.100685|
|         921|  3.2714e-01|   -1.107782|
|         922|  3.2733e-01|   -1.051327|
|         923|  3.2750e-01|   -1.154291|
|         924|  3.2757e-01|   -0.978887|
|         925|  3.2779e-01|   -1.143796|
|         926|  3.2801e-01|   -1.021370|
|         927|  3.2816e-01|   -1.223525|
|         928|  3.2838e-01|   -1.189536|
|         929|  3.2845e-01|   -1.194009|
|         930|  3.2846e-01|   -1.217695|
|         931|  3.2862e-01|   -1.181534|
|         932|  3.2889e-01|   -1.209990|
|         933|  3.2903e-01|   -1.113587|
|         934|  3.2923e-01|   -1.182054|
|         935|  3.2934e-01|   -0.950424|
|         936|  3.2944e-01|   -1.136296|
|         937|  3.2963e-01|   -1.161056|
|         938|  3.2970e-01|   -1.048830|
|         939|  3.2984e-01|   -1.142353|
|         940|  3.2985e-01|   -1.182508|
|         941|  3.2984e-01|   -1.151450|
|         942|  3.3008e-01|   -0.998892|
|         943|  3.3021e-01|   -0.954839|
|         944|  3.3034e-01|   -1.207278|
|         945|  3.3049e-01|   -1.157563|
|         946|  3.3066e-01|   -1.058609|
|         947|  3.3081e-01|   -1.185123|
|         948|  3.3103e-01|   -0.922425|
|         949|  3.3131e-01|   -1.161833|
|         950|  3.3155e-01|   -1.050623|
|         951|  3.3185e-01|   -1.040696|
|         952|  3.3212e-01|   -0.999380|
|         953|  3.3235e-01|   -1.041726|
|         954|  3.3256e-01|   -1.191232|
|         955|  3.3277e-01|   -1.167389|
|         956|  3.3298e-01|   -1.145163|
|         957|  3.3320e-01|   -1.133600|
|         958|  3.3342e-01|   -1.025615|
|         959|  3.3363e-01|   -0.966014|
|         960|  3.3387e-01|   -1.167994|
|         961|  3.3407e-01|   -1.162462|
|         962|  3.3419e-01|   -1.059945|
|         963|  3.3437e-01|   -1.190716|
|         964|  3.3456e-01|   -1.215363|
|         965|  3.3466e-01|   -1.154820|
|         966|  3.3487e-01|   -1.191165|
|         967|  3.3509e-01|   -1.044717|
|         968|  3.3530e-01|   -1.223133|
|         969|  3.3542e-01|   -1.093432|
|         970|  3.3559e-01|   -1.120106|
|         971|  3.3583e-01|   -0.993634|
|         972|  3.3635e-01|   -1.223069|
|         973|  3.3664e-01|   -1.139582|
|         974|  3.3687e-01|   -1.010932|
|         975|  3.3712e-01|   -1.217171|
|         976|  3.3730e-01|   -1.069612|
|         977|  3.3743e-01|   -1.195648|
|         978|  3.3761e-01|   -0.948149|
|         979|  3.3774e-01|   -1.220994|
|         980|  3.3790e-01|   -1.257446|
|         981|  3.3796e-01|   -1.028459|
|         982|  3.3797e-01|   -0.983436|
|         983|  3.3797e-01|   -1.032275|
|         984|  3.3799e-01|   -0.888496|
|         985|  3.3808e-01|   -1.121100|
|         986|  3.3808e-01|   -1.116128|
|         987|  3.3807e-01|   -0.984309|
|         988|  3.3806e-01|   -1.183158|
|         989|  3.3810e-01|   -1.202300|
|         990|  3.3815e-01|   -1.053125|
|         991|  3.3815e-01|   -0.932661|
|         992|  3.3818e-01|   -1.051099|
|         993|  3.3818e-01|   -0.984103|
|         994|  3.3825e-01|   -1.185739|
|         995|  3.3834e-01|   -1.132909|
|         996|  3.3848e-01|   -1.150002|
|         997|  3.3873e-01|   -1.172267|
|         998|  3.3885e-01|   -1.048727|
|         999|  3.3889e-01|   -1.215785|
|        1000|  3.3896e-01|   -1.032133|
+-----------------------------------------------------------------------+
|        File Writing Summary       |              Filename             |
+-----------------------------------------------------------------------+
|SU2 binary restart                 |restart_flow.dat                   |
|Paraview                           |flow.vtu                           |
|Paraview surface                   |surface_flow.vtu                   |
+-----------------------------------------------------------------------+
+--------------------------------------+
|  Inner_Iter|   Time(sec)|    rms[Rho]|
+--------------------------------------+
|        1001|  3.3896e-01|   -1.191132|
|        1002|  3.3895e-01|   -0.867261|
|        1003|  3.3895e-01|   -1.153475|
|        1004|  3.3901e-01|   -1.205684|
|        1005|  3.3903e-01|   -0.968521|
|        1006|  3.3902e-01|   -1.141748|
|        1007|  3.3905e-01|   -1.206087|
|        1008|  3.3910e-01|   -0.985950|
|        1009|  3.3911e-01|   -1.032600|
|        1010|  3.3910e-01|   -1.202325|
|        1011|  3.3913e-01|   -1.190356|
|        1012|  3.3915e-01|   -1.145127|
|        1013|  3.3914e-01|   -1.202121|
|        1014|  3.3918e-01|   -1.109643|
|        1015|  3.3921e-01|   -1.044203|
|        1016|  3.3929e-01|   -1.210295|
|        1017|  3.3933e-01|   -1.095366|
|        1018|  3.3933e-01|   -1.133449|
|        1019|  3.3932e-01|   -1.143223|
|        1020|  3.3931e-01|   -1.210096|
|        1021|  3.3929e-01|   -1.195112|
|        1022|  3.3928e-01|   -1.217492|
|        1023|  3.3926e-01|   -0.982051|
|        1024|  3.3925e-01|   -1.184851|
|        1025|  3.3923e-01|   -1.116682|
|        1026|  3.3922e-01|   -1.208121|
|        1027|  3.3922e-01|   -1.151233|
|        1028|  3.3921e-01|   -1.044944|
|        1029|  3.3923e-01|   -1.238702|
|        1030|  3.3923e-01|   -1.137574|
|        1031|  3.3927e-01|   -1.094541|
|        1032|  3.3927e-01|   -1.090780|
|        1033|  3.3925e-01|   -1.195168|
|        1034|  3.3934e-01|   -1.184747|
|        1035|  3.3942e-01|   -1.185823|
|        1036|  3.3943e-01|   -1.099185|
|        1037|  3.3942e-01|   -1.202950|
|        1038|  3.3941e-01|   -1.143855|
|        1039|  3.3946e-01|   -1.178798|
|        1040|  3.3959e-01|   -0.949253|
|        1041|  3.3976e-01|   -1.184679|
|        1042|  3.3991e-01|   -1.021406|
|        1043|  3.4002e-01|   -1.166608|
|        1044|  3.4010e-01|   -1.185579|
|        1045|  3.4017e-01|   -0.895096|
|        1046|  3.4019e-01|   -1.217709|
|        1047|  3.4019e-01|   -1.153283|
|        1048|  3.4020e-01|   -0.888493|
|        1049|  3.4021e-01|   -1.040592|
|        1050|  3.4020e-01|   -1.135691|
|        1051|  3.4020e-01|   -1.046750|
|        1052|  3.4019e-01|   -1.031817|
|        1053|  3.4021e-01|   -1.079993|
|        1054|  3.4024e-01|   -1.024872|
|        1055|  3.4023e-01|   -1.234969|
|        1056|  3.4024e-01|   -1.187375|
|        1057|  3.4023e-01|   -1.041163|
|        1058|  3.4022e-01|   -0.999581|
|        1059|  3.4021e-01|   -1.161991|
|        1060|  3.4021e-01|   -1.017403|
|        1061|  3.4020e-01|   -0.949649|
|        1062|  3.4018e-01|   -1.084872|
|        1063|  3.4019e-01|   -1.152034|
|        1064|  3.4023e-01|   -1.128408|
|        1065|  3.4023e-01|   -1.037298|
|        1066|  3.4023e-01|   -1.043729|
|        1067|  3.4022e-01|   -1.197920|
|        1068|  3.4020e-01|   -1.200593|
|        1069|  3.4019e-01|   -0.955823|
|        1070|  3.4020e-01|   -1.145389|
|        1071|  3.4022e-01|   -1.048549|
|        1072|  3.4024e-01|   -1.187328|
|        1073|  3.4024e-01|   -1.147247|
|        1074|  3.4023e-01|   -1.060513|
|        1075|  3.4022e-01|   -1.177570|
|        1076|  3.4024e-01|   -1.040241|
|        1077|  3.4024e-01|   -1.208716|
|        1078|  3.4024e-01|   -1.208112|
|        1079|  3.4023e-01|   -1.088128|
|        1080|  3.4029e-01|   -0.903490|
|        1081|  3.4029e-01|   -1.156590|
|        1082|  3.4033e-01|   -1.044099|
|        1083|  3.4033e-01|   -1.069601|
|        1084|  3.4041e-01|   -1.005063|
|        1085|  3.4061e-01|   -1.209138|
|        1086|  3.4071e-01|   -1.144865|
|        1087|  3.4080e-01|   -1.192836|
|        1088|  3.4081e-01|   -1.223153|
|        1089|  3.4081e-01|   -1.220116|
|        1090|  3.4080e-01|   -1.045862|
|        1091|  3.4080e-01|   -1.025055|
|        1092|  3.4079e-01|   -1.243035|
|        1093|  3.4087e-01|   -1.174457|
|        1094|  3.4091e-01|   -1.105449|
|        1095|  3.4093e-01|   -1.064321|
|        1096|  3.4096e-01|   -1.160875|
|        1097|  3.4099e-01|   -1.146348|
|        1098|  3.4100e-01|   -1.201889|
|        1099|  3.4100e-01|   -1.168244|
|        1100|  3.4100e-01|   -1.187461|
+-----------------------------------------------------------------------+
|        File Writing Summary       |              Filename             |
+-----------------------------------------------------------------------+
|SU2 binary restart                 |restart_flow.dat                   |
|Paraview                           |flow.vtu                           |
|Paraview surface                   |surface_flow.vtu                   |
+-----------------------------------------------------------------------+
+--------------------------------------+
|  Inner_Iter|   Time(sec)|    rms[Rho]|
+--------------------------------------+
|        1101|  3.4101e-01|   -1.054961|
|        1102|  3.4101e-01|   -1.157565|
|        1103|  3.4101e-01|   -1.204289|
|        1104|  3.4106e-01|   -0.860431|
|        1105|  3.4109e-01|   -1.099283|
|        1106|  3.4109e-01|   -1.136435|
|        1107|  3.4108e-01|   -1.055059|
|        1108|  3.4111e-01|   -1.202081|
|        1109|  3.4112e-01|   -1.018969|
|        1110|  3.4112e-01|   -1.145512|
|        1111|  3.4111e-01|   -1.179334|
|        1112|  3.4110e-01|   -1.211751|
|        1113|  3.4115e-01|   -1.041895|
|        1114|  3.4117e-01|   -1.195434|
|        1115|  3.4116e-01|   -0.971206|
|        1116|  3.4117e-01|   -1.190742|
|        1117|  3.4121e-01|   -1.225568|
|        1118|  3.4124e-01|   -1.176613|
|        1119|  3.4124e-01|   -1.093303|
|        1120|  3.4124e-01|   -1.226030|
|        1121|  3.4129e-01|   -1.179246|
|        1122|  3.4133e-01|   -1.234491|
|        1123|  3.4144e-01|   -1.041105|
|        1124|  3.4165e-01|   -1.003678|
|        1125|  3.4186e-01|   -1.014273|
|        1126|  3.4202e-01|   -1.030287|
|        1127|  3.4221e-01|   -1.146055|
|        1128|  3.4228e-01|   -1.225767|
|        1129|  3.4230e-01|   -1.194259|
|        1130|  3.4238e-01|   -1.190629|
|        1131|  3.4240e-01|   -1.223557|
|        1132|  3.4239e-01|   -1.065333|
|        1133|  3.4255e-01|   -1.209639|
|        1134|  3.4271e-01|   -1.026393|
|        1135|  3.4274e-01|   -1.060840|
|        1136|  3.4273e-01|   -1.192431|
|        1137|  3.4272e-01|   -1.031432|
|        1138|  3.4271e-01|   -1.073975|
|        1139|  3.4271e-01|   -1.017257|
|        1140|  3.4270e-01|   -1.143529|
|        1141|  3.4269e-01|   -1.170894|
|        1142|  3.4268e-01|   -1.168910|
|        1143|  3.4273e-01|   -1.066507|
|        1144|  3.4272e-01|   -1.235050|
|        1145|  3.4273e-01|   -1.193158|
|        1146|  3.4272e-01|   -1.134236|
|        1147|  3.4274e-01|   -0.996434|
|        1148|  3.4276e-01|   -1.191547|
|        1149|  3.4278e-01|   -1.143163|
|        1150|  3.4278e-01|   -0.938575|
|        1151|  3.4277e-01|   -1.071236|
|        1152|  3.4278e-01|   -1.235416|
|        1153|  3.4286e-01|   -1.031165|
|        1154|  3.4296e-01|   -0.954433|
|        1155|  3.4298e-01|   -1.201425|
|        1156|  3.4299e-01|   -1.176351|
|        1157|  3.4298e-01|   -1.236767|
|        1158|  3.4298e-01|   -1.229079|
|        1159|  3.4296e-01|   -1.033060|
|        1160|  3.4297e-01|   -0.992002|
|        1161|  3.4301e-01|   -1.056422|
|        1162|  3.4305e-01|   -1.189187|
|        1163|  3.4313e-01|   -0.921031|
|        1164|  3.4316e-01|   -0.981007|
|        1165|  3.4316e-01|   -1.180714|
|        1166|  3.4315e-01|   -0.994741|
|        1167|  3.4314e-01|   -1.211428|
|        1168|  3.4314e-01|   -1.195228|
|        1169|  3.4330e-01|   -0.987393|
|        1170|  3.4345e-01|   -1.225343|
|        1171|  3.4348e-01|   -1.173527|
|        1172|  3.4349e-01|   -1.097723|
|        1173|  3.4355e-01|   -1.224581|
|        1174|  3.4363e-01|   -1.123149|
|        1175|  3.4365e-01|   -1.168380|
|        1176|  3.4365e-01|   -1.186698|
|        1177|  3.4364e-01|   -0.959217|
|        1178|  3.4363e-01|   -1.193875|
|        1179|  3.4365e-01|   -1.156790|
|        1180|  3.4367e-01|   -1.146519|
|        1181|  3.4368e-01|   -1.219619|
|        1182|  3.4366e-01|   -0.781559|
|        1183|  3.4366e-01|   -1.087295|
|        1184|  3.4369e-01|   -1.187147|
|        1185|  3.4371e-01|   -0.984365|
|        1186|  3.4371e-01|   -1.190491|
|        1187|  3.4370e-01|   -1.194923|
|        1188|  3.4369e-01|   -1.032080|
|        1189|  3.4368e-01|   -1.147307|
|        1190|  3.4369e-01|   -1.164699|
|        1191|  3.4369e-01|   -1.138082|
|        1192|  3.4368e-01|   -1.143163|
|        1193|  3.4376e-01|   -1.177376|
|        1194|  3.4377e-01|   -1.063083|
|        1195|  3.4380e-01|   -1.201585|
|        1196|  3.4381e-01|   -1.075082|
|        1197|  3.4381e-01|   -1.119665|
|        1198|  3.4381e-01|   -1.075583|
|        1199|  3.4382e-01|   -1.201315|
|        1200|  3.4384e-01|   -1.118350|
+-----------------------------------------------------------------------+
|        File Writing Summary       |              Filename             |
+-----------------------------------------------------------------------+
|SU2 binary restart                 |restart_flow.dat                   |
|Paraview                           |flow.vtu                           |
|Paraview surface                   |surface_flow.vtu                   |
+-----------------------------------------------------------------------+
+--------------------------------------+
|  Inner_Iter|   Time(sec)|    rms[Rho]|
+--------------------------------------+
|        1201|  3.4384e-01|   -1.169772|
|        1202|  3.4387e-01|   -0.946037|
|        1203|  3.4389e-01|   -1.127241|
|        1204|  3.4388e-01|   -1.045981|
|        1205|  3.4388e-01|   -1.180247|
|        1206|  3.4387e-01|   -1.004657|
|        1207|  3.4391e-01|   -1.034940|
|        1208|  3.4392e-01|   -1.054915|
|        1209|  3.4391e-01|   -1.216806|
|        1210|  3.4396e-01|   -1.047122|
|        1211|  3.4398e-01|   -1.161262|
|        1212|  3.4400e-01|   -1.153892|
|        1213|  3.4418e-01|   -1.169225|
|        1214|  3.4430e-01|   -1.191365|
|        1215|  3.4433e-01|   -1.060293|
|        1216|  3.4436e-01|   -1.164974|
|        1217|  3.4435e-01|   -1.142150|
|        1218|  3.4435e-01|   -1.025082|
|        1219|  3.4433e-01|   -1.171668|
|        1220|  3.4432e-01|   -1.076962|
|        1221|  3.4432e-01|   -1.126119|
|        1222|  3.4432e-01|   -1.157613|
|        1223|  3.4432e-01|   -1.194113|
|        1224|  3.4431e-01|   -1.071502|
|        1225|  3.4430e-01|   -1.177811|
|        1226|  3.4429e-01|   -1.186363|
|        1227|  3.4428e-01|   -1.165958|
|        1228|  3.4427e-01|   -1.222830|
|        1229|  3.4425e-01|   -1.085835|
|        1230|  3.4424e-01|   -1.114222|
|        1231|  3.4428e-01|   -1.019758|
|        1232|  3.4433e-01|   -1.145463|
|        1233|  3.4441e-01|   -1.149390|
|        1234|  3.4441e-01|   -0.983517|
|        1235|  3.4441e-01|   -1.176263|
|        1236|  3.4440e-01|   -0.992278|
|        1237|  3.4441e-01|   -1.170226|
|        1238|  3.4439e-01|   -1.162715|
|        1239|  3.4438e-01|   -1.208544|
|        1240|  3.4440e-01|   -1.046913|
|        1241|  3.4443e-01|   -1.221583|
|        1242|  3.4444e-01|   -1.148721|
|        1243|  3.4443e-01|   -1.187135|
|        1244|  3.4442e-01|   -1.093289|
|        1245|  3.4440e-01|   -1.021250|
|        1246|  3.4439e-01|   -1.186521|
|        1247|  3.4438e-01|   -1.072910|
|        1248|  3.4438e-01|   -0.927305|
|        1249|  3.4442e-01|   -1.193432|
|        1250|  3.4443e-01|   -0.990523|
|        1251|  3.4444e-01|   -1.052443|
|        1252|  3.4444e-01|   -1.088239|
|        1253|  3.4444e-01|   -1.111811|
|        1254|  3.4445e-01|   -1.150597|
|        1255|  3.4444e-01|   -1.219218|
|        1256|  3.4443e-01|   -1.134385|
|        1257|  3.4444e-01|   -0.989953|
|        1258|  3.4455e-01|   -1.220932|
|        1259|  3.4464e-01|   -1.137707|
|        1260|  3.4464e-01|   -1.098480|
|        1261|  3.4463e-01|   -1.128980|
|        1262|  3.4462e-01|   -0.946105|
|        1263|  3.4460e-01|   -1.228339|
|        1264|  3.4459e-01|   -1.089291|
|        1265|  3.4457e-01|   -1.015827|
|        1266|  3.4456e-01|   -1.014996|
|        1267|  3.4455e-01|   -1.131009|
|        1268|  3.4455e-01|   -1.053348|
|        1269|  3.4454e-01|   -1.156861|
|        1270|  3.4454e-01|   -1.052481|
|        1271|  3.4452e-01|   -1.191633|
|        1272|  3.4451e-01|   -1.188053|
|        1273|  3.4450e-01|   -1.061566|
|        1274|  3.4449e-01|   -1.178476|
|        1275|  3.4448e-01|   -1.181532|
|        1276|  3.4448e-01|   -1.048909|
|        1277|  3.4447e-01|   -1.194939|
|        1278|  3.4446e-01|   -1.047459|
|        1279|  3.4445e-01|   -0.968855|
|        1280|  3.4443e-01|   -1.214011|
|        1281|  3.4442e-01|   -1.170775|
|        1282|  3.4441e-01|   -0.948277|
|        1283|  3.4440e-01|   -0.929911|
|        1284|  3.4441e-01|   -1.187533|
|        1285|  3.4441e-01|   -1.198811|
|        1286|  3.4443e-01|   -1.081990|
|        1287|  3.4457e-01|   -0.998952|
|        1288|  3.4470e-01|   -1.193914|
|        1289|  3.4482e-01|   -1.135294|
|        1290|  3.4483e-01|   -1.069757|
|        1291|  3.4481e-01|   -1.182021|
|        1292|  3.4480e-01|   -1.182428|
|        1293|  3.4479e-01|   -1.180363|
|        1294|  3.4478e-01|   -1.047795|
|        1295|  3.4476e-01|   -1.235806|
|        1296|  3.4475e-01|   -1.187291|
|        1297|  3.4474e-01|   -1.153305|
|        1298|  3.4473e-01|   -1.171356|
|        1299|  3.4472e-01|   -0.962303|
|        1300|  3.4470e-01|   -1.223750|
+-----------------------------------------------------------------------+
|        File Writing Summary       |              Filename             |
+-----------------------------------------------------------------------+
|SU2 binary restart                 |restart_flow.dat                   |
|Paraview                           |flow.vtu                           |
|Paraview surface                   |surface_flow.vtu                   |
+-----------------------------------------------------------------------+
+--------------------------------------+
|  Inner_Iter|   Time(sec)|    rms[Rho]|
+--------------------------------------+
|        1301|  3.4470e-01|   -1.170372|
