
-------------------------------------------------------------------------
|    ___ _   _ ___                                                      |
|   / __| | | |_  )   Release 7.5.1 "Blackbird"                         |
|   \__ \ |_| |/ /                                                      |
|   |___/\___//___|   Suite (Computational Fluid Dynamics Code)         |
|                                                                       |
-------------------------------------------------------------------------
| SU2 Project Website: https://su2code.github.io                        |
|                                                                       |
| The SU2 Project is maintained by the SU2 Foundation                   |
| (http://su2foundation.org)                                            |
-------------------------------------------------------------------------
| Copyright 2012-2023, SU2 Contributors                                 |
|                                                                       |
| SU2 is free software; you can redistribute it and/or                  |
| modify it under the terms of the GNU Lesser General Public            |
| License as published by the Free Software Foundation; either          |
| version 2.1 of the License, or (at your option) any later version.    |
|                                                                       |
| SU2 is distributed in the hope that it will be useful,                |
| but WITHOUT ANY WARRANTY; without even the implied warranty of        |
| MERCHANTABILITY or FITNESS FOR A PARTICULAR PURPOSE. See the GNU      |
| Lesser General Public License for more details.                       |
|                                                                       |
| You should have received a copy of the GNU Lesser General Public      |
| License along with SU2. If not, see <http://www.gnu.org/licenses/>.   |
-------------------------------------------------------------------------

Parsing config file for zone 0

----------------- Physical Case Definition ( Zone 0 ) -------------------
Compressible Euler equations.
Mach number: 1.7.
Angle of attack (AoA): 0 deg, and angle of sideslip (AoS): 0 deg.
Reading and writing binary SU2 native restart files.
Read flow solution from: solution_flow.dat.
Dimensional simulation.
The reference area is 1 m^2.
The semi-span will be computed using the max y(3D) value.
The reference length is 1 m.
Input mesh file name: mesh0.su2

--------------- Space Numerical Integration ( Zone 0 ) ------------------
Roe (with entropy fix = 0.001) solver for the flow inviscid terms.
Standard Roe without low-dissipation function.
Second order integration in space, with slope limiter.
No slope-limiting method. 
Gradient for upwind reconstruction: inverse-distance weighted Least-Squares.
Gradient for viscous and source terms: inverse-distance weighted Least-Squares.

--------------- Time Numerical Integration  ( Zone 0 ) ------------------
Local time stepping (steady state simulation).
Euler implicit method for the flow equations.
FGMRES is used for solving the linear system.
Using a ILU(0) preconditioning.
Convergence criteria of the linear solver: 1e-06.
Max number of linear iterations: 20.
No CFL adaptation.
Courant-Friedrichs-Lewy number:      0.1

------------------ Convergence Criteria  ( Zone 0 ) ---------------------
Maximum number of solver subiterations: 3000.
Begin convergence monitoring at iteration 10.
Residual minimum value: 1e-11.
Cauchy series min. value: 1e-10.
Number of Cauchy elements: 100.
Begin windowed time average at iteration 0.

-------------------- Output Information ( Zone 0 ) ----------------------
File writing frequency: 
+------------------------------------+
|                     File| Frequency|
+------------------------------------+
|                  RESTART|       100|
|                 PARAVIEW|       100|
|         SURFACE_PARAVIEW|       100|
+------------------------------------+
Writing the convergence history file every 1 inner iterations.
Writing the screen convergence history every 1 inner iterations.
The tabular file format is CSV (.csv).
Convergence history file name: history.
Forces breakdown file name: forces_breakdown.dat.
Surface file name: surface_flow.
Volume file name: flow.
Restart file name: restart_flow.dat.

------------- Config File Boundary Information ( Zone 0 ) ---------------
+-----------------------------------------------------------------------+
|                        Marker Type|                        Marker Name|
+-----------------------------------------------------------------------+
|                         Euler wall|                                  4|
|                                   |                                  5|
+-----------------------------------------------------------------------+
|                     Symmetry plane|                                  2|
+-----------------------------------------------------------------------+
|                   Riemann boundary|                                  1|
|                                   |                                  3|
+-----------------------------------------------------------------------+

-------------------- Output Preprocessing ( Zone 0 ) --------------------

WARNING: SURFACE_PRESSURE_DROP can only be computed for at least 2 surfaces (outlet, inlet, ...)

Screen output fields: INNER_ITER, WALL_TIME, RMS_DENSITY
History output group(s): ITER, RMS_RES
Convergence field(s): RMS_DENSITY
Warning: No (valid) fields chosen for time convergence monitoring. Time convergence monitoring inactive.
Volume output fields: COORDINATES, SOLUTION, PRIMITIVE

------------------- Geometry Preprocessing ( Zone 0 ) -------------------
Two dimensional problem.
2614 grid points before partitioning.
5034 volume elements before partitioning.
5 surface markers.
40 boundary elements in index 0 (Marker = 1).
50 boundary elements in index 1 (Marker = 2).
50 boundary elements in index 2 (Marker = 3).
37 boundary elements in index 3 (Marker = 4).
15 boundary elements in index 4 (Marker = 5).
Executing the partitioning functions.
Building the graph adjacency structure.
Calling ParMETIS... graph partitioning complete (209 edge cuts).
Distributing ParMETIS coloring.
Rebalancing vertices.
Rebalancing volume element connectivity.
Rebalancing markers and surface elements.
2828 vertices including ghost points. 
5242 interior elements including halo cells. 
5242 triangles.
Establishing MPI communication patterns.
Setting point connectivity.
Renumbering points (Reverse Cuthill McKee Ordering).
Recomputing point connectivity.
Setting element connectivity.
Checking the numerical grid orientation.
All volume elements are correctly orientend.
There has been a re-orientation of 196 LINE surface elements.
Identifying edges and vertices.
Setting the control volume structure.
Area of the computational grid: 0.906293.
Searching for the closest normal neighbors to the surfaces.
Storing a mapping from global to local point index.
Compute the surface curvature.
Max K: 80.4821. Mean K: 3.11267. Standard deviation K: 14.5031.
Checking for periodicity.
Computing mesh quality statistics for the dual control volumes.
+--------------------------------------------------------------+
|           Mesh Quality Metric|        Minimum|        Maximum|
+--------------------------------------------------------------+
|    Orthogonality Angle (deg.)|        80.2461|        89.9998|
|     CV Face Area Aspect Ratio|        1.00002|        6.79992|
|           CV Sub-Volume Ratio|        1.00001|        2.81985|
+--------------------------------------------------------------+
Finding max control volume width.
Communicating number of neighbors.
Wetted area = 0 m.
Area projection in the x-plane = 0 m, y-plane = 0 m.
Max. coordinate in the x-direction = -1e+10 m, y-direction = -1e+10 m.
Min. coordinate in the x-direction = 1e+10 m, y-direction = 1e+10 m.
Checking if Euler & Symmetry markers are straight/plane:
Boundary marker 4 is a single straight.
Boundary marker 5 is a single straight.
Boundary marker 2 is a single straight.
Computing wall distances.

-------------------- Solver Preprocessing ( Zone 0 ) --------------------
Inviscid flow: Computing density based on free-stream
temperature and pressure using the ideal gas law.
Force coefficients computed using free-stream values.

-- Models:
+------------------------------------------------------------------------------+
|          Viscosity Model|        Conductivity Model|              Fluid Model|
+------------------------------------------------------------------------------+
|                        -|                         -|                   PR_GAS|
+------------------------------------------------------------------------------+
-- Fluid properties:
+------------------------------------------------------------------------------+
|                  Name|    Dim. value|    Ref. value|      Unit|Non-dim. value|
+------------------------------------------------------------------------------+
|          Gas Constant|        35.152|             1|  N.m/kg.K|        35.152|
|      Spec. Heat Ratio|             -|             -|         -|        1.0125|
|     Critical Pressure|     1.415e+06|             1|          |     1.415e+06|
|  Critical Temperature|        564.09|             1|         K|        564.09|
+------------------------------------------------------------------------------+
-- Initial and free-stream conditions:
+------------------------------------------------------------------------------+
|                  Name|    Dim. value|    Ref. value|      Unit|Non-dim. value|
+------------------------------------------------------------------------------+
|       Static Pressure|    1.4999e+06|             1|        Pa|    1.4999e+06|
|               Density|       202.888|             1|    kg/m^3|       202.888|
|           Temperature|       569.364|             1|         K|       569.364|
|          Total Energy|   1.55884e+06|             1|   m^2/s^2|   1.55884e+06|
|            Velocity-X|       80.3857|             1|       m/s|       80.3857|
|            Velocity-Y|             0|             1|       m/s|             0|
|    Velocity Magnitude|       80.3857|             1|       m/s|       80.3857|
+------------------------------------------------------------------------------+
|           Mach Number|             -|             -|         -|           1.7|
+------------------------------------------------------------------------------+
Initialize Jacobian structure (Euler). MG level: 0.

------------------- Numerics Preprocessing ( Zone 0 ) -------------------

----------------- Integration Preprocessing ( Zone 0 ) ------------------

------------------- Iteration Preprocessing ( Zone 0 ) ------------------
Euler/Navier-Stokes/RANS fluid iteration.

------------------------------ Begin Solver -----------------------------

Simulation Run using the Single-zone Driver
+--------------------------------------+
|  Inner_Iter|   Time(sec)|    rms[Rho]|
+--------------------------------------+
|           0|  6.1901e-03|   -0.269664|
|           1|  5.8757e-03|   -0.273806|
|           2|  5.7364e-03|   -0.277884|
|           3|  5.6686e-03|   -0.281903|
|           4|  5.6468e-03|   -0.285864|
|           5|  5.7446e-03|   -0.289770|
|           6|  5.7403e-03|   -0.293623|
|           7|  5.7037e-03|   -0.297424|
|           8|  5.6694e-03|   -0.301176|
|           9|  5.6552e-03|   -0.304880|
|          10|  5.6744e-03|   -0.308537|
|          11|  5.7136e-03|   -0.312148|
|          12|  5.6861e-03|   -0.315715|
|          13|  5.6676e-03|   -0.319238|
|          14|  5.6522e-03|   -0.322719|
|          15|  5.6340e-03|   -0.326158|
|          16|  5.6593e-03|   -0.329555|
|          17|  5.6700e-03|   -0.332911|
|          18|  5.6547e-03|   -0.336226|
|          19|  5.6410e-03|   -0.339501|
|          20|  5.6361e-03|   -0.342736|
|          21|  5.6293e-03|   -0.345932|
|          22|  5.6469e-03|   -0.349087|
|          23|  5.6473e-03|   -0.352204|
|          24|  5.6383e-03|   -0.355281|
|          25|  5.6300e-03|   -0.358318|
|          26|  5.6221e-03|   -0.361317|
|          27|  5.6215e-03|   -0.364275|
|          28|  5.6344e-03|   -0.367195|
|          29|  5.6349e-03|   -0.370074|
|          30|  5.6257e-03|   -0.372913|
|          31|  5.6201e-03|   -0.375713|
|          32|  5.6173e-03|   -0.378472|
|          33|  5.6313e-03|   -0.381190|
|          34|  5.6412e-03|   -0.383868|
|          35|  5.6324e-03|   -0.386505|
|          36|  5.6276e-03|   -0.389100|
|          37|  5.6257e-03|   -0.391653|
|          38|  5.6184e-03|   -0.394165|
|          39|  5.6304e-03|   -0.396635|
|          40|  5.6335e-03|   -0.399062|
|          41|  5.6284e-03|   -0.401447|
|          42|  5.6215e-03|   -0.403789|
|          43|  5.6205e-03|   -0.406088|
|          44|  5.6172e-03|   -0.408344|
|          45|  5.6267e-03|   -0.410556|
|          46|  5.6282e-03|   -0.412724|
|          47|  5.6233e-03|   -0.414849|
|          48|  5.6175e-03|   -0.416931|
|          49|  5.6161e-03|   -0.418968|
|          50|  5.6189e-03|   -0.420961|
|          51|  5.6268e-03|   -0.422910|
|          52|  5.6222e-03|   -0.424815|
|          53|  5.6183e-03|   -0.426676|
|          54|  5.5841e-03|   -0.428494|
|          55|  5.5557e-03|   -0.430267|
|          56|  5.5229e-03|   -0.431996|
|          57|  5.5063e-03|   -0.433682|
|          58|  5.4841e-03|   -0.435324|
|          59|  5.4565e-03|   -0.436924|
|          60|  5.4294e-03|   -0.438480|
|          61|  5.4024e-03|   -0.439993|
|          62|  5.3739e-03|   -0.441464|
|          63|  5.3540e-03|   -0.442892|
|          64|  5.3274e-03|   -0.444279|
|          65|  5.3154e-03|   -0.445624|
|          66|  5.3110e-03|   -0.446929|
|          67|  5.2906e-03|   -0.448193|
|          68|  5.2665e-03|   -0.449416|
|          69|  5.2452e-03|   -0.450600|
|          70|  5.2221e-03|   -0.451745|
|          71|  5.2051e-03|   -0.452851|
|          72|  5.1836e-03|   -0.453920|
|          73|  5.1769e-03|   -0.454950|
|          74|  5.1638e-03|   -0.455944|
|          75|  5.1464e-03|   -0.456902|
|          76|  5.1282e-03|   -0.457824|
|          77|  5.1104e-03|   -0.458711|
|          78|  5.0921e-03|   -0.459564|
|          79|  5.0788e-03|   -0.460383|
|          80|  5.0612e-03|   -0.461170|
|          81|  5.0512e-03|   -0.461924|
|          82|  5.0395e-03|   -0.462646|
|          83|  5.0286e-03|   -0.463338|
|          84|  5.0133e-03|   -0.464000|
|          85|  4.9973e-03|   -0.464632|
|          86|  4.9815e-03|   -0.465236|
|          87|  4.9705e-03|   -0.465812|
|          88|  4.9560e-03|   -0.466360|
|          89|  4.9480e-03|   -0.466883|
|          90|  4.9375e-03|   -0.467379|
|          91|  4.9296e-03|   -0.467851|
|          92|  4.9158e-03|   -0.468299|
|          93|  4.9043e-03|   -0.468723|
|          94|  4.8912e-03|   -0.469125|
|          95|  4.8785e-03|   -0.469505|
|          96|  4.8683e-03|   -0.469863|
|          97|  4.8570e-03|   -0.470201|
|          98|  4.8528e-03|   -0.470520|
|          99|  4.8463e-03|   -0.470819|
|         100|  4.8358e-03|   -0.471100|
+-----------------------------------------------------------------------+
|        File Writing Summary       |              Filename             |
+-----------------------------------------------------------------------+
|SU2 binary restart                 |restart_flow.dat                   |
|Paraview                           |flow.vtu                           |
|Paraview surface                   |surface_flow.vtu                   |
+-----------------------------------------------------------------------+
+--------------------------------------+
|  Inner_Iter|   Time(sec)|    rms[Rho]|
+--------------------------------------+
|         101|  4.8620e-03|   -0.471363|
|         102|  4.8504e-03|   -0.471609|
|         103|  4.8415e-03|   -0.471838|
|         104|  4.8318e-03|   -0.472052|
|         105|  4.8286e-03|   -0.472251|
|         106|  4.8231e-03|   -0.472436|
|         107|  4.8135e-03|   -0.472607|
|         108|  4.8030e-03|   -0.472764|
|         109|  4.7933e-03|   -0.472909|
|         110|  4.7830e-03|   -0.473042|
|         111|  4.7755e-03|   -0.473164|
|         112|  4.7658e-03|   -0.473274|
|         113|  4.7928e-03|   -0.473375|
|         114|  4.8056e-03|   -0.473465|
|         115|  4.8051e-03|   -0.473547|
|         116|  4.8004e-03|   -0.473619|
|         117|  4.8022e-03|   -0.473683|
|         118|  4.7939e-03|   -0.473740|
|         119|  4.7930e-03|   -0.473789|
|         120|  4.7874e-03|   -0.473831|
|         121|  4.7803e-03|   -0.473867|
|         122|  4.7723e-03|   -0.473897|
|         123|  4.7636e-03|   -0.473921|
|         124|  4.7550e-03|   -0.473940|
|         125|  4.7489e-03|   -0.473955|
|         126|  4.7401e-03|   -0.473964|
|         127|  4.7384e-03|   -0.473970|
|         128|  4.7344e-03|   -0.473972|
|         129|  4.7280e-03|   -0.473971|
|         130|  4.7205e-03|   -0.473966|
|         131|  4.7127e-03|   -0.473959|
|         132|  4.7057e-03|   -0.473950|
|         133|  4.7003e-03|   -0.473938|
|         134|  4.6923e-03|   -0.473924|
|         135|  4.6904e-03|   -0.473909|
|         136|  4.6864e-03|   -0.473892|
|         137|  4.6819e-03|   -0.473875|
|         138|  4.6747e-03|   -0.473856|
|         139|  4.6675e-03|   -0.473837|
|         140|  4.6605e-03|   -0.473817|
|         141|  4.6566e-03|   -0.473797|
|         142|  4.6498e-03|   -0.473777|
|         143|  4.6474e-03|   -0.473757|
|         144|  4.6433e-03|   -0.473738|
|         145|  4.6400e-03|   -0.473719|
|         146|  4.6350e-03|   -0.473700|
|         147|  4.6290e-03|   -0.473683|
|         148|  4.6226e-03|   -0.473666|
|         149|  4.6163e-03|   -0.473651|
|         150|  4.6117e-03|   -0.473636|
|         151|  4.6072e-03|   -0.473623|
|         152|  4.6046e-03|   -0.473612|
|         153|  4.6020e-03|   -0.473602|
|         154|  4.5966e-03|   -0.473593|
|         155|  4.5908e-03|   -0.473587|
|         156|  4.5850e-03|   -0.473582|
|         157|  4.5785e-03|   -0.473579|
|         158|  4.5753e-03|   -0.473578|
|         159|  4.5700e-03|   -0.473579|
|         160|  4.5694e-03|   -0.473582|
|         161|  4.5670e-03|   -0.473587|
|         162|  4.5628e-03|   -0.473594|
|         163|  4.5574e-03|   -0.473604|
|         164|  4.5525e-03|   -0.473616|
|         165|  4.5472e-03|   -0.473630|
|         166|  4.5436e-03|   -0.473647|
|         167|  4.5382e-03|   -0.473666|
|         168|  4.5381e-03|   -0.473687|
|         169|  4.5356e-03|   -0.473711|
|         170|  4.5325e-03|   -0.473737|
|         171|  4.5278e-03|   -0.473766|
|         172|  4.5234e-03|   -0.473797|
|         173|  4.5186e-03|   -0.473831|
|         174|  4.5161e-03|   -0.473867|
|         175|  4.5114e-03|   -0.473906|
|         176|  4.5096e-03|   -0.473947|
|         177|  4.5070e-03|   -0.473990|
|         178|  4.5047e-03|   -0.474036|
|         179|  4.5008e-03|   -0.474084|
|         180|  4.4964e-03|   -0.474135|
|         181|  4.4916e-03|   -0.474188|
|         182|  4.4888e-03|   -0.474244|
|         183|  4.4847e-03|   -0.474302|
|         184|  4.4832e-03|   -0.474362|
|         185|  4.4805e-03|   -0.474425|
|         186|  4.4794e-03|   -0.474489|
|         187|  4.4753e-03|   -0.474557|
|         188|  4.4719e-03|   -0.474626|
|         189|  4.4677e-03|   -0.474697|
|         190|  4.4655e-03|   -0.474771|
|         191|  4.4611e-03|   -0.474847|
|         192|  4.4602e-03|   -0.474925|
|         193|  4.4584e-03|   -0.475005|
|         194|  4.4573e-03|   -0.475087|
|         195|  4.4531e-03|   -0.475171|
|         196|  4.4494e-03|   -0.475257|
|         197|  4.4456e-03|   -0.475345|
|         198|  4.4418e-03|   -0.475434|
|         199|  4.4391e-03|   -0.475526|
|         200|  4.4366e-03|   -0.475619|
+-----------------------------------------------------------------------+
|        File Writing Summary       |              Filename             |
+-----------------------------------------------------------------------+
|SU2 binary restart                 |restart_flow.dat                   |
|Paraview                           |flow.vtu                           |
|Paraview surface                   |surface_flow.vtu                   |
+-----------------------------------------------------------------------+
+--------------------------------------+
|  Inner_Iter|   Time(sec)|    rms[Rho]|
+--------------------------------------+
|         201|  4.4553e-03|   -0.475715|
|         202|  4.4521e-03|   -0.475811|
|         203|  4.4481e-03|   -0.475910|
|         204|  4.4450e-03|   -0.476010|
|         205|  4.4413e-03|   -0.476112|
|         206|  4.4389e-03|   -0.476215|
|         207|  4.4352e-03|   -0.476320|
|         208|  4.4352e-03|   -0.476426|
|         209|  4.4343e-03|   -0.476534|
|         210|  4.4318e-03|   -0.476643|
|         211|  4.4280e-03|   -0.476754|
|         212|  4.4252e-03|   -0.476865|
|         213|  4.4216e-03|   -0.476978|
|         214|  4.4194e-03|   -0.477093|
|         215|  4.4157e-03|   -0.477208|
|         216|  4.4160e-03|   -0.477325|
|         217|  4.4146e-03|   -0.477442|
|         218|  4.4124e-03|   -0.477561|
|         219|  4.4092e-03|   -0.477681|
|         220|  4.4063e-03|   -0.477802|
|         221|  4.4030e-03|   -0.477923|
|         222|  4.4018e-03|   -0.478046|
|         223|  4.3985e-03|   -0.478169|
|         224|  4.3981e-03|   -0.478294|
|         225|  4.3968e-03|   -0.478419|
|         226|  4.3954e-03|   -0.478545|
|         227|  4.3922e-03|   -0.478671|
|         228|  4.3894e-03|   -0.478799|
|         229|  4.3866e-03|   -0.478927|
|         230|  4.3848e-03|   -0.479055|
|         231|  4.3821e-03|   -0.479185|
|         232|  4.3814e-03|   -0.479314|
|         233|  4.3805e-03|   -0.479445|
|         234|  4.3800e-03|   -0.479576|
|         235|  4.3770e-03|   -0.479707|
|         236|  4.3741e-03|   -0.479839|
|         237|  4.3711e-03|   -0.479971|
|         238|  4.3684e-03|   -0.480104|
|         239|  4.3667e-03|   -0.480237|
|         240|  4.3646e-03|   -0.480370|
|         241|  4.3646e-03|   -0.480504|
|         242|  4.3638e-03|   -0.480638|
|         243|  4.3613e-03|   -0.480772|
|         244|  4.3582e-03|   -0.480906|
|         245|  4.3552e-03|   -0.481041|
|         246|  4.3528e-03|   -0.481176|
|         247|  4.3513e-03|   -0.481311|
|         248|  4.3488e-03|   -0.481446|
|         249|  4.3496e-03|   -0.481582|
|         250|  4.3487e-03|   -0.481717|
|         251|  4.3467e-03|   -0.481853|
|         252|  4.3442e-03|   -0.481989|
|         253|  4.3418e-03|   -0.482124|
|         254|  4.3391e-03|   -0.482260|
|         255|  4.3376e-03|   -0.482396|
|         256|  4.3349e-03|   -0.482532|
|         257|  4.3356e-03|   -0.482668|
|         258|  4.3354e-03|   -0.482804|
|         259|  4.3341e-03|   -0.482940|
|         260|  4.3315e-03|   -0.483076|
|         261|  4.3296e-03|   -0.483212|
|         262|  4.3271e-03|   -0.483348|
|         263|  4.3258e-03|   -0.483483|
|         264|  4.3234e-03|   -0.483619|
|         265|  4.3237e-03|   -0.483755|
|         266|  4.3227e-03|   -0.483890|
|         267|  4.3216e-03|   -0.484026|
|         268|  4.3193e-03|   -0.484161|
|         269|  4.3171e-03|   -0.484296|
|         270|  4.3146e-03|   -0.484432|
|         271|  4.3175e-03|   -0.484567|
|         272|  4.3232e-03|   -0.484702|
|         273|  4.3243e-03|   -0.484836|
|         274|  4.3229e-03|   -0.484971|
|         275|  4.3228e-03|   -0.485106|
|         276|  4.3221e-03|   -0.485240|
|         277|  4.3201e-03|   -0.485374|
|         278|  4.3194e-03|   -0.485508|
|         279|  4.3174e-03|   -0.485642|
|         280|  4.3173e-03|   -0.485776|
|         281|  4.3166e-03|   -0.485910|
|         282|  4.3158e-03|   -0.486043|
|         283|  4.3139e-03|   -0.486176|
|         284|  4.3120e-03|   -0.486309|
|         285|  4.3098e-03|   -0.486442|
|         286|  4.3080e-03|   -0.486575|
|         287|  4.3063e-03|   -0.486708|
|         288|  4.3051e-03|   -0.486841|
|         289|  4.3048e-03|   -0.486973|
|         290|  4.3044e-03|   -0.487105|
|         291|  4.3025e-03|   -0.487237|
|         292|  4.3003e-03|   -0.487369|
|         293|  4.2983e-03|   -0.487501|
|         294|  4.2961e-03|   -0.487632|
|         295|  4.2940e-03|   -0.487764|
|         296|  4.2917e-03|   -0.487895|
|         297|  4.2896e-03|   -0.488026|
|         298|  4.2875e-03|   -0.488157|
|         299|  4.2854e-03|   -0.488288|
|         300|  4.2832e-03|   -0.488419|
+-----------------------------------------------------------------------+
|        File Writing Summary       |              Filename             |
+-----------------------------------------------------------------------+
|SU2 binary restart                 |restart_flow.dat                   |
|Paraview                           |flow.vtu                           |
|Paraview surface                   |surface_flow.vtu                   |
+-----------------------------------------------------------------------+
+--------------------------------------+
|  Inner_Iter|   Time(sec)|    rms[Rho]|
+--------------------------------------+
|         301|  4.2930e-03|   -0.488550|
|         302|  4.2909e-03|   -0.488680|
|         303|  4.2888e-03|   -0.488811|
|         304|  4.2866e-03|   -0.488941|
|         305|  4.2847e-03|   -0.489071|
|         306|  4.2825e-03|   -0.489201|
|         307|  4.2803e-03|   -0.489331|
|         308|  4.2784e-03|   -0.489461|
|         309|  4.2793e-03|   -0.489591|
|         310|  4.2779e-03|   -0.489720|
|         311|  4.2759e-03|   -0.489850|
|         312|  4.2739e-03|   -0.489979|
|         313|  4.2719e-03|   -0.490109|
|         314|  4.2700e-03|   -0.490238|
|         315|  4.2678e-03|   -0.490367|
|         316|  4.2658e-03|   -0.490496|
|         317|  4.2660e-03|   -0.490625|
|         318|  4.2641e-03|   -0.490754|
|         319|  4.2623e-03|   -0.490883|
|         320|  4.2601e-03|   -0.491012|
|         321|  4.2583e-03|   -0.491141|
|         322|  4.2567e-03|   -0.491270|
|         323|  4.2549e-03|   -0.491399|
|         324|  4.2536e-03|   -0.491527|
|         325|  4.2521e-03|   -0.491656|
|         326|  4.2505e-03|   -0.491785|
|         327|  4.2487e-03|   -0.491913|
|         328|  4.2472e-03|   -0.492042|
|         329|  4.2456e-03|   -0.492171|
|         330|  4.2438e-03|   -0.492299|
|         331|  4.2421e-03|   -0.492428|
|         332|  4.2407e-03|   -0.492556|
|         333|  4.2390e-03|   -0.492685|
|         334|  4.2374e-03|   -0.492813|
|         335|  4.2358e-03|   -0.492942|
|         336|  4.2343e-03|   -0.493070|
|         337|  4.2328e-03|   -0.493199|
|         338|  4.2311e-03|   -0.493328|
|         339|  4.2299e-03|   -0.493456|
|         340|  4.2284e-03|   -0.493585|
|         341|  4.2269e-03|   -0.493713|
|         342|  4.2253e-03|   -0.493842|
|         343|  4.2239e-03|   -0.493971|
|         344|  4.2223e-03|   -0.494100|
|         345|  4.2208e-03|   -0.494228|
|         346|  4.2194e-03|   -0.494357|
|         347|  4.2179e-03|   -0.494486|
|         348|  4.2160e-03|   -0.494615|
|         349|  4.2148e-03|   -0.494744|
|         350|  4.2133e-03|   -0.494873|
|         351|  4.2118e-03|   -0.495002|
|         352|  4.2104e-03|   -0.495131|
|         353|  4.2092e-03|   -0.495260|
|         354|  4.2077e-03|   -0.495389|
|         355|  4.2061e-03|   -0.495518|
|         356|  4.2048e-03|   -0.495648|
|         357|  4.2034e-03|   -0.495777|
|         358|  4.2022e-03|   -0.495907|
|         359|  4.2008e-03|   -0.496036|
|         360|  4.1993e-03|   -0.496166|
|         361|  4.1980e-03|   -0.496295|
|         362|  4.1964e-03|   -0.496425|
|         363|  4.1952e-03|   -0.496555|
|         364|  4.1939e-03|   -0.496684|
|         365|  4.1923e-03|   -0.496814|
|         366|  4.1912e-03|   -0.496944|
|         367|  4.1899e-03|   -0.497074|
|         368|  4.1886e-03|   -0.497204|
|         369|  4.1872e-03|   -0.497334|
|         370|  4.1859e-03|   -0.497465|
|         371|  4.1845e-03|   -0.497595|
|         372|  4.1831e-03|   -0.497725|
|         373|  4.1817e-03|   -0.497856|
|         374|  4.1804e-03|   -0.497986|
|         375|  4.1791e-03|   -0.498117|
|         376|  4.1778e-03|   -0.498248|
|         377|  4.1765e-03|   -0.498378|
|         378|  4.1753e-03|   -0.498509|
|         379|  4.1742e-03|   -0.498640|
|         380|  4.1728e-03|   -0.498771|
|         381|  4.1715e-03|   -0.498902|
|         382|  4.1702e-03|   -0.499033|
|         383|  4.1691e-03|   -0.499164|
|         384|  4.1678e-03|   -0.499296|
|         385|  4.1666e-03|   -0.499427|
|         386|  4.1655e-03|   -0.499558|
|         387|  4.1642e-03|   -0.499690|
|         388|  4.1629e-03|   -0.499821|
|         389|  4.1619e-03|   -0.499953|
|         390|  4.1608e-03|   -0.500084|
|         391|  4.1597e-03|   -0.500216|
|         392|  4.1585e-03|   -0.500348|
|         393|  4.1574e-03|   -0.500480|
|         394|  4.1562e-03|   -0.500612|
|         395|  4.1551e-03|   -0.500744|
|         396|  4.1540e-03|   -0.500876|
|         397|  4.1527e-03|   -0.501008|
|         398|  4.1516e-03|   -0.501140|
|         399|  4.1504e-03|   -0.501272|
|         400|  4.1493e-03|   -0.501404|
+-----------------------------------------------------------------------+
|        File Writing Summary       |              Filename             |
+-----------------------------------------------------------------------+
|SU2 binary restart                 |restart_flow.dat                   |
|Paraview                           |flow.vtu                           |
|Paraview surface                   |surface_flow.vtu                   |
+-----------------------------------------------------------------------+
+--------------------------------------+
|  Inner_Iter|   Time(sec)|    rms[Rho]|
+--------------------------------------+
|         401|  4.1578e-03|   -0.501537|
|         402|  4.1566e-03|   -0.501669|
|         403|  4.1556e-03|   -0.501802|
|         404|  4.1545e-03|   -0.501934|
|         405|  4.1533e-03|   -0.502067|
|         406|  4.1522e-03|   -0.502199|
|         407|  4.1509e-03|   -0.502332|
|         408|  4.1495e-03|   -0.502464|
|         409|  4.1485e-03|   -0.502597|
|         410|  4.1474e-03|   -0.502730|
|         411|  4.1464e-03|   -0.502863|
|         412|  4.1454e-03|   -0.502995|
|         413|  4.1443e-03|   -0.503128|
|         414|  4.1430e-03|   -0.503261|
|         415|  4.1421e-03|   -0.503394|
|         416|  4.1411e-03|   -0.503527|
|         417|  4.1400e-03|   -0.503660|
|         418|  4.1390e-03|   -0.503793|
|         419|  4.1380e-03|   -0.503926|
|         420|  4.1369e-03|   -0.504059|
|         421|  4.1358e-03|   -0.504193|
|         422|  4.1349e-03|   -0.504326|
|         423|  4.1338e-03|   -0.504459|
|         424|  4.1328e-03|   -0.504592|
|         425|  4.1318e-03|   -0.504725|
|         426|  4.1308e-03|   -0.504859|
|         427|  4.1296e-03|   -0.504992|
|         428|  4.1287e-03|   -0.505125|
|         429|  4.1277e-03|   -0.505258|
|         430|  4.1304e-03|   -0.505392|
|         431|  4.1348e-03|   -0.505525|
|         432|  4.1354e-03|   -0.505658|
|         433|  4.1342e-03|   -0.505792|
|         434|  4.1358e-03|   -0.505925|
|         435|  4.1358e-03|   -0.506058|
|         436|  4.1354e-03|   -0.506192|
|         437|  4.1344e-03|   -0.506325|
|         438|  4.1335e-03|   -0.506459|
|         439|  4.1326e-03|   -0.506592|
|         440|  4.1314e-03|   -0.506725|
|         441|  4.1303e-03|   -0.506859|
|         442|  4.1293e-03|   -0.506992|
|         443|  4.1282e-03|   -0.507126|
|         444|  4.1270e-03|   -0.507259|
|         445|  4.1260e-03|   -0.507392|
|         446|  4.1249e-03|   -0.507526|
|         447|  4.1237e-03|   -0.507659|
|         448|  4.1227e-03|   -0.507792|
|         449|  4.1215e-03|   -0.507926|
|         450|  4.1204e-03|   -0.508059|
|         451|  4.1194e-03|   -0.508192|
|         452|  4.1184e-03|   -0.508326|
|         453|  4.1175e-03|   -0.508459|
|         454|  4.1168e-03|   -0.508592|
|         455|  4.1158e-03|   -0.508726|
|         456|  4.1148e-03|   -0.508859|
|         457|  4.1142e-03|   -0.508992|
|         458|  4.1134e-03|   -0.509125|
|         459|  4.1124e-03|   -0.509259|
|         460|  4.1114e-03|   -0.509392|
|         461|  4.1105e-03|   -0.509525|
|         462|  4.1096e-03|   -0.509658|
|         463|  4.1088e-03|   -0.509791|
|         464|  4.1080e-03|   -0.509925|
|         465|  4.1072e-03|   -0.510058|
|         466|  4.1063e-03|   -0.510191|
|         467|  4.1054e-03|   -0.510324|
|         468|  4.1048e-03|   -0.510457|
|         469|  4.1039e-03|   -0.510590|
|         470|  4.1029e-03|   -0.510723|
|         471|  4.1022e-03|   -0.510856|
|         472|  4.1013e-03|   -0.510989|
|         473|  4.1005e-03|   -0.511122|
|         474|  4.0996e-03|   -0.511254|
|         475|  4.0989e-03|   -0.511387|
|         476|  4.0980e-03|   -0.511520|
|         477|  4.0972e-03|   -0.511653|
|         478|  4.0964e-03|   -0.511786|
|         479|  4.0957e-03|   -0.511918|
|         480|  4.0948e-03|   -0.512051|
|         481|  4.0940e-03|   -0.512184|
|         482|  4.0932e-03|   -0.512316|
|         483|  4.0924e-03|   -0.512449|
|         484|  4.0917e-03|   -0.512582|
|         485|  4.0910e-03|   -0.512714|
|         486|  4.0902e-03|   -0.512847|
|         487|  4.0893e-03|   -0.512979|
|         488|  4.0885e-03|   -0.513111|
|         489|  4.0877e-03|   -0.513244|
|         490|  4.0870e-03|   -0.513376|
|         491|  4.0861e-03|   -0.513508|
|         492|  4.0855e-03|   -0.513641|
|         493|  4.0848e-03|   -0.513773|
|         494|  4.0839e-03|   -0.513905|
|         495|  4.0832e-03|   -0.514037|
|         496|  4.0825e-03|   -0.514169|
|         497|  4.0817e-03|   -0.514301|
|         498|  4.0809e-03|   -0.514433|
|         499|  4.0802e-03|   -0.514565|
|         500|  4.0793e-03|   -0.514697|
+-----------------------------------------------------------------------+
|        File Writing Summary       |              Filename             |
+-----------------------------------------------------------------------+
|SU2 binary restart                 |restart_flow.dat                   |
|Paraview                           |flow.vtu                           |
|Paraview surface                   |surface_flow.vtu                   |
+-----------------------------------------------------------------------+
+--------------------------------------+
|  Inner_Iter|   Time(sec)|    rms[Rho]|
+--------------------------------------+
|         501|  4.0857e-03|   -0.514829|
|         502|  4.0849e-03|   -0.514961|
|         503|  4.0839e-03|   -0.515093|
|         504|  4.0833e-03|   -0.515225|
|         505|  4.0823e-03|   -0.515357|
|         506|  4.0813e-03|   -0.515488|
|         507|  4.0805e-03|   -0.515620|
|         508|  4.0795e-03|   -0.515751|
|         509|  4.0788e-03|   -0.515883|
|         510|  4.0778e-03|   -0.516014|
|         511|  4.0768e-03|   -0.516146|
|         512|  4.0760e-03|   -0.516277|
|         513|  4.0752e-03|   -0.516409|
|         514|  4.0744e-03|   -0.516540|
|         515|  4.0738e-03|   -0.516671|
|         516|  4.0731e-03|   -0.516802|
|         517|  4.0724e-03|   -0.516934|
|         518|  4.0718e-03|   -0.517065|
|         519|  4.0712e-03|   -0.517196|
|         520|  4.0704e-03|   -0.517327|
|         521|  4.0699e-03|   -0.517458|
|         522|  4.0692e-03|   -0.517589|
|         523|  4.0685e-03|   -0.517720|
|         524|  4.0677e-03|   -0.517850|
|         525|  4.0670e-03|   -0.517981|
|         526|  4.0665e-03|   -0.518112|
|         527|  4.0659e-03|   -0.518242|
|         528|  4.0652e-03|   -0.518373|
|         529|  4.0647e-03|   -0.518504|
|         530|  4.0640e-03|   -0.518634|
|         531|  4.0633e-03|   -0.518764|
|         532|  4.0627e-03|   -0.518895|
|         533|  4.0622e-03|   -0.519025|
|         534|  4.0615e-03|   -0.519155|
|         535|  4.0609e-03|   -0.519286|
|         536|  4.0611e-03|   -0.519416|
|         537|  4.0621e-03|   -0.519546|
|         538|  4.0615e-03|   -0.519676|
|         539|  4.0606e-03|   -0.519806|
|         540|  4.0599e-03|   -0.519935|
|         541|  4.0590e-03|   -0.520065|
|         542|  4.0582e-03|   -0.520195|
|         543|  4.0576e-03|   -0.520325|
|         544|  4.0571e-03|   -0.520454|
|         545|  4.0564e-03|   -0.520584|
|         546|  4.0557e-03|   -0.520713|
|         547|  4.0551e-03|   -0.520843|
|         548|  4.0546e-03|   -0.520972|
|         549|  4.0539e-03|   -0.521101|
|         550|  4.0533e-03|   -0.521231|
|         551|  4.0527e-03|   -0.521360|
|         552|  4.0519e-03|   -0.521489|
|         553|  4.0512e-03|   -0.521618|
|         554|  4.0508e-03|   -0.521747|
|         555|  4.0500e-03|   -0.521875|
|         556|  4.0493e-03|   -0.522004|
|         557|  4.0489e-03|   -0.522133|
|         558|  4.0484e-03|   -0.522261|
|         559|  4.0477e-03|   -0.522390|
|         560|  4.0471e-03|   -0.522518|
|         561|  4.0466e-03|   -0.522647|
|         562|  4.0459e-03|   -0.522775|
|         563|  4.0453e-03|   -0.522903|
|         564|  4.0450e-03|   -0.523032|
|         565|  4.0445e-03|   -0.523160|
|         566|  4.0439e-03|   -0.523288|
|         567|  4.0432e-03|   -0.523415|
|         568|  4.0427e-03|   -0.523543|
|         569|  4.0422e-03|   -0.523671|
|         570|  4.0417e-03|   -0.523799|
|         571|  4.0410e-03|   -0.523926|
|         572|  4.0404e-03|   -0.524054|
|         573|  4.0399e-03|   -0.524181|
|         574|  4.0393e-03|   -0.524308|
|         575|  4.0388e-03|   -0.524435|
|         576|  4.0382e-03|   -0.524563|
|         577|  4.0376e-03|   -0.524690|
|         578|  4.0369e-03|   -0.524816|
|         579|  4.0364e-03|   -0.524943|
|         580|  4.0359e-03|   -0.525070|
|         581|  4.0353e-03|   -0.525197|
|         582|  4.0347e-03|   -0.525323|
|         583|  4.0341e-03|   -0.525450|
|         584|  4.0349e-03|   -0.525576|
|         585|  4.0343e-03|   -0.525702|
|         586|  4.0337e-03|   -0.525828|
|         587|  4.0331e-03|   -0.525954|
|         588|  4.0325e-03|   -0.526080|
|         589|  4.0320e-03|   -0.526206|
|         590|  4.0364e-03|   -0.526332|
|         591|  4.0385e-03|   -0.526458|
|         592|  4.0378e-03|   -0.526583|
|         593|  4.0390e-03|   -0.526709|
|         594|  4.0391e-03|   -0.526834|
|         595|  4.0391e-03|   -0.526959|
|         596|  4.0385e-03|   -0.527084|
|         597|  4.0380e-03|   -0.527209|
|         598|  4.0374e-03|   -0.527334|
|         599|  4.0369e-03|   -0.527459|
|         600|  4.0362e-03|   -0.527584|
+-----------------------------------------------------------------------+
|        File Writing Summary       |              Filename             |
+-----------------------------------------------------------------------+
|SU2 binary restart                 |restart_flow.dat                   |
|Paraview                           |flow.vtu                           |
|Paraview surface                   |surface_flow.vtu                   |
+-----------------------------------------------------------------------+
+--------------------------------------+
|  Inner_Iter|   Time(sec)|    rms[Rho]|
+--------------------------------------+
|         601|  4.0415e-03|   -0.527708|
|         602|  4.0410e-03|   -0.527833|
|         603|  4.0403e-03|   -0.527957|
|         604|  4.0396e-03|   -0.528081|
|         605|  4.0389e-03|   -0.528205|
|         606|  4.0382e-03|   -0.528330|
|         607|  4.0375e-03|   -0.528453|
|         608|  4.0368e-03|   -0.528577|
|         609|  4.0362e-03|   -0.528701|
|         610|  4.0357e-03|   -0.528824|
|         611|  4.0351e-03|   -0.528948|
|         612|  4.0346e-03|   -0.529071|
|         613|  4.0342e-03|   -0.529195|
|         614|  4.0335e-03|   -0.529318|
|         615|  4.0330e-03|   -0.529441|
|         616|  4.0326e-03|   -0.529563|
|         617|  4.0321e-03|   -0.529686|
|         618|  4.0314e-03|   -0.529809|
|         619|  4.0310e-03|   -0.529931|
|         620|  4.0304e-03|   -0.530054|
|         621|  4.0299e-03|   -0.530176|
|         622|  4.0293e-03|   -0.530298|
|         623|  4.0289e-03|   -0.530420|
|         624|  4.0284e-03|   -0.530542|
|         625|  4.0279e-03|   -0.530664|
|         626|  4.0275e-03|   -0.530786|
|         627|  4.0269e-03|   -0.530907|
|         628|  4.0264e-03|   -0.531029|
|         629|  4.0259e-03|   -0.531150|
|         630|  4.0254e-03|   -0.531271|
|         631|  4.0248e-03|   -0.531392|
|         632|  4.0242e-03|   -0.531513|
|         633|  4.0238e-03|   -0.531634|
|         634|  4.0233e-03|   -0.531755|
|         635|  4.0228e-03|   -0.531875|
|         636|  4.0222e-03|   -0.531996|
|         637|  4.0218e-03|   -0.532116|
|         638|  4.0212e-03|   -0.532236|
|         639|  4.0207e-03|   -0.532356|
|         640|  4.0202e-03|   -0.532476|
|         641|  4.0197e-03|   -0.532596|
|         642|  4.0192e-03|   -0.532716|
|         643|  4.0187e-03|   -0.532835|
|         644|  4.0182e-03|   -0.532955|
|         645|  4.0176e-03|   -0.533074|
|         646|  4.0172e-03|   -0.533193|
|         647|  4.0167e-03|   -0.533312|
|         648|  4.0162e-03|   -0.533431|
|         649|  4.0158e-03|   -0.533550|
|         650|  4.0154e-03|   -0.533669|
|         651|  4.0150e-03|   -0.533787|
|         652|  4.0144e-03|   -0.533906|
|         653|  4.0140e-03|   -0.534024|
|         654|  4.0134e-03|   -0.534142|
|         655|  4.0129e-03|   -0.534260|
|         656|  4.0125e-03|   -0.534378|
|         657|  4.0120e-03|   -0.534496|
|         658|  4.0115e-03|   -0.534613|
|         659|  4.0111e-03|   -0.534731|
|         660|  4.0106e-03|   -0.534848|
|         661|  4.0101e-03|   -0.534966|
|         662|  4.0096e-03|   -0.535083|
|         663|  4.0093e-03|   -0.535200|
|         664|  4.0088e-03|   -0.535317|
|         665|  4.0083e-03|   -0.535433|
|         666|  4.0079e-03|   -0.535550|
|         667|  4.0073e-03|   -0.535667|
|         668|  4.0074e-03|   -0.535783|
|         669|  4.0069e-03|   -0.535899|
|         670|  4.0063e-03|   -0.536015|
|         671|  4.0057e-03|   -0.536131|
|         672|  4.0050e-03|   -0.536247|
|         673|  4.0045e-03|   -0.536363|
|         674|  4.0039e-03|   -0.536479|
|         675|  4.0035e-03|   -0.536594|
|         676|  4.0029e-03|   -0.536710|
|         677|  4.0023e-03|   -0.536825|
|         678|  4.0019e-03|   -0.536940|
|         679|  4.0015e-03|   -0.537055|
|         680|  4.0011e-03|   -0.537170|
|         681|  4.0007e-03|   -0.537285|
|         682|  4.0003e-03|   -0.537399|
|         683|  4.0000e-03|   -0.537514|
|         684|  3.9995e-03|   -0.537628|
|         685|  3.9989e-03|   -0.537743|
|         686|  3.9985e-03|   -0.537857|
|         687|  3.9980e-03|   -0.537971|
|         688|  3.9976e-03|   -0.538085|
|         689|  3.9973e-03|   -0.538199|
|         690|  3.9968e-03|   -0.538312|
|         691|  3.9964e-03|   -0.538426|
|         692|  3.9961e-03|   -0.538539|
|         693|  3.9957e-03|   -0.538653|
|         694|  3.9953e-03|   -0.538766|
|         695|  3.9948e-03|   -0.538879|
|         696|  3.9945e-03|   -0.538992|
|         697|  3.9942e-03|   -0.539105|
|         698|  3.9937e-03|   -0.539217|
|         699|  3.9932e-03|   -0.539330|
|         700|  3.9928e-03|   -0.539443|
+-----------------------------------------------------------------------+
|        File Writing Summary       |              Filename             |
+-----------------------------------------------------------------------+
|SU2 binary restart                 |restart_flow.dat                   |
|Paraview                           |flow.vtu                           |
|Paraview surface                   |surface_flow.vtu                   |
+-----------------------------------------------------------------------+
+--------------------------------------+
|  Inner_Iter|   Time(sec)|    rms[Rho]|
+--------------------------------------+
|         701|  3.9980e-03|   -0.539555|
|         702|  3.9975e-03|   -0.539667|
|         703|  3.9971e-03|   -0.539779|
|         704|  3.9965e-03|   -0.539891|
|         705|  3.9959e-03|   -0.540003|
|         706|  3.9955e-03|   -0.540115|
|         707|  3.9949e-03|   -0.540227|
|         708|  3.9945e-03|   -0.540338|
|         709|  3.9938e-03|   -0.540450|
|         710|  3.9933e-03|   -0.540561|
|         711|  3.9929e-03|   -0.540673|
|         712|  3.9924e-03|   -0.540784|
|         713|  3.9918e-03|   -0.540895|
|         714|  3.9914e-03|   -0.541006|
|         715|  3.9909e-03|   -0.541117|
|         716|  3.9906e-03|   -0.541227|
|         717|  3.9902e-03|   -0.541338|
|         718|  3.9899e-03|   -0.541448|
|         719|  3.9895e-03|   -0.541559|
|         720|  3.9892e-03|   -0.541669|
|         721|  3.9888e-03|   -0.541779|
|         722|  3.9884e-03|   -0.541889|
|         723|  3.9880e-03|   -0.541999|
|         724|  3.9877e-03|   -0.542109|
|         725|  3.9873e-03|   -0.542219|
|         726|  3.9870e-03|   -0.542329|
|         727|  3.9866e-03|   -0.542438|
|         728|  3.9863e-03|   -0.542548|
|         729|  3.9859e-03|   -0.542657|
|         730|  3.9854e-03|   -0.542766|
|         731|  3.9852e-03|   -0.542876|
|         732|  3.9848e-03|   -0.542985|
|         733|  3.9844e-03|   -0.543094|
|         734|  3.9840e-03|   -0.543203|
|         735|  3.9836e-03|   -0.543311|
|         736|  3.9832e-03|   -0.543420|
|         737|  3.9828e-03|   -0.543529|
|         738|  3.9824e-03|   -0.543637|
|         739|  3.9820e-03|   -0.543746|
|         740|  3.9816e-03|   -0.543854|
|         741|  3.9813e-03|   -0.543962|
|         742|  3.9810e-03|   -0.544071|
|         743|  3.9805e-03|   -0.544179|
|         744|  3.9803e-03|   -0.544287|
|         745|  3.9799e-03|   -0.544395|
|         746|  3.9795e-03|   -0.544503|
|         747|  3.9791e-03|   -0.544610|
|         748|  3.9813e-03|   -0.544718|
|         749|  3.9838e-03|   -0.544826|
|         750|  3.9842e-03|   -0.544933|
|         751|  3.9837e-03|   -0.545041|
|         752|  3.9850e-03|   -0.545148|
|         753|  3.9853e-03|   -0.545255|
|         754|  3.9853e-03|   -0.545363|
|         755|  3.9849e-03|   -0.545470|
|         756|  3.9845e-03|   -0.545577|
|         757|  3.9841e-03|   -0.545684|
|         758|  3.9837e-03|   -0.545791|
|         759|  3.9831e-03|   -0.545897|
|         760|  3.9827e-03|   -0.546004|
|         761|  3.9822e-03|   -0.546111|
|         762|  3.9818e-03|   -0.546218|
|         763|  3.9813e-03|   -0.546324|
|         764|  3.9808e-03|   -0.546431|
|         765|  3.9804e-03|   -0.546537|
|         766|  3.9799e-03|   -0.546643|
|         767|  3.9794e-03|   -0.546750|
|         768|  3.9790e-03|   -0.546856|
|         769|  3.9785e-03|   -0.546962|
|         770|  3.9781e-03|   -0.547068|
|         771|  3.9777e-03|   -0.547174|
|         772|  3.9773e-03|   -0.547280|
|         773|  3.9771e-03|   -0.547386|
|         774|  3.9767e-03|   -0.547492|
|         775|  3.9764e-03|   -0.547598|
|         776|  3.9760e-03|   -0.547704|
|         777|  3.9757e-03|   -0.547810|
|         778|  3.9753e-03|   -0.547915|
|         779|  3.9749e-03|   -0.548021|
|         780|  3.9747e-03|   -0.548126|
|         781|  3.9744e-03|   -0.548232|
|         782|  3.9741e-03|   -0.548337|
|         783|  3.9736e-03|   -0.548443|
|         784|  3.9734e-03|   -0.548548|
|         785|  3.9732e-03|   -0.548653|
|         786|  3.9729e-03|   -0.548759|
|         787|  3.9725e-03|   -0.548864|
|         788|  3.9723e-03|   -0.548969|
|         789|  3.9719e-03|   -0.549074|
|         790|  3.9715e-03|   -0.549179|
|         791|  3.9713e-03|   -0.549284|
|         792|  3.9710e-03|   -0.549389|
|         793|  3.9706e-03|   -0.549494|
|         794|  3.9703e-03|   -0.549599|
|         795|  3.9700e-03|   -0.549704|
|         796|  3.9696e-03|   -0.549809|
|         797|  3.9692e-03|   -0.549913|
|         798|  3.9690e-03|   -0.550018|
|         799|  3.9687e-03|   -0.550123|
|         800|  3.9684e-03|   -0.550227|
+-----------------------------------------------------------------------+
|        File Writing Summary       |              Filename             |
+-----------------------------------------------------------------------+
|SU2 binary restart                 |restart_flow.dat                   |
|Paraview                           |flow.vtu                           |
|Paraview surface                   |surface_flow.vtu                   |
+-----------------------------------------------------------------------+
+--------------------------------------+
|  Inner_Iter|   Time(sec)|    rms[Rho]|
+--------------------------------------+
|         801|  3.9728e-03|   -0.550332|
|         802|  3.9725e-03|   -0.550436|
|         803|  3.9720e-03|   -0.550541|
|         804|  3.9716e-03|   -0.550645|
|         805|  3.9712e-03|   -0.550750|
|         806|  3.9709e-03|   -0.550854|
|         807|  3.9706e-03|   -0.550959|
|         808|  3.9704e-03|   -0.551063|
|         809|  3.9700e-03|   -0.551167|
|         810|  3.9696e-03|   -0.551272|
|         811|  3.9694e-03|   -0.551376|
|         812|  3.9691e-03|   -0.551480|
|         813|  3.9687e-03|   -0.551584|
|         814|  3.9684e-03|   -0.551688|
|         815|  3.9681e-03|   -0.551792|
|         816|  3.9677e-03|   -0.551896|
|         817|  3.9674e-03|   -0.552000|
|         818|  3.9672e-03|   -0.552104|
|         819|  3.9668e-03|   -0.552208|
|         820|  3.9665e-03|   -0.552312|
|         821|  3.9662e-03|   -0.552416|
|         822|  3.9659e-03|   -0.552520|
|         823|  3.9655e-03|   -0.552624|
|         824|  3.9651e-03|   -0.552728|
|         825|  3.9648e-03|   -0.552831|
|         826|  3.9645e-03|   -0.552935|
|         827|  3.9642e-03|   -0.553039|
|         828|  3.9640e-03|   -0.553142|
|         829|  3.9637e-03|   -0.553246|
|         830|  3.9634e-03|   -0.553350|
|         831|  3.9630e-03|   -0.553453|
|         832|  3.9627e-03|   -0.553557|
|         833|  3.9624e-03|   -0.553660|
|         834|  3.9621e-03|   -0.553764|
|         835|  3.9618e-03|   -0.553867|
|         836|  3.9614e-03|   -0.553971|
|         837|  3.9611e-03|   -0.554074|
|         838|  3.9608e-03|   -0.554177|
|         839|  3.9605e-03|   -0.554281|
|         840|  3.9602e-03|   -0.554384|
|         841|  3.9599e-03|   -0.554487|
|         842|  3.9596e-03|   -0.554590|
|         843|  3.9592e-03|   -0.554693|
|         844|  3.9590e-03|   -0.554797|
|         845|  3.9587e-03|   -0.554900|
|         846|  3.9584e-03|   -0.555003|
|         847|  3.9581e-03|   -0.555106|
|         848|  3.9583e-03|   -0.555209|
|         849|  3.9582e-03|   -0.555312|
|         850|  3.9580e-03|   -0.555415|
|         851|  3.9576e-03|   -0.555518|
|         852|  3.9573e-03|   -0.555620|
|         853|  3.9570e-03|   -0.555723|
|         854|  3.9569e-03|   -0.555826|
|         855|  3.9566e-03|   -0.555929|
|         856|  3.9562e-03|   -0.556032|
|         857|  3.9561e-03|   -0.556134|
|         858|  3.9559e-03|   -0.556237|
|         859|  3.9556e-03|   -0.556340|
|         860|  3.9554e-03|   -0.556442|
|         861|  3.9551e-03|   -0.556545|
|         862|  3.9549e-03|   -0.556647|
|         863|  3.9545e-03|   -0.556750|
|         864|  3.9542e-03|   -0.556852|
|         865|  3.9540e-03|   -0.556954|
|         866|  3.9537e-03|   -0.557057|
|         867|  3.9533e-03|   -0.557159|
|         868|  3.9530e-03|   -0.557261|
|         869|  3.9527e-03|   -0.557364|
|         870|  3.9525e-03|   -0.557466|
|         871|  3.9522e-03|   -0.557568|
|         872|  3.9520e-03|   -0.557670|
|         873|  3.9517e-03|   -0.557772|
|         874|  3.9514e-03|   -0.557875|
|         875|  3.9511e-03|   -0.557977|
|         876|  3.9509e-03|   -0.558079|
|         877|  3.9506e-03|   -0.558181|
|         878|  3.9503e-03|   -0.558282|
|         879|  3.9501e-03|   -0.558384|
|         880|  3.9498e-03|   -0.558486|
|         881|  3.9495e-03|   -0.558588|
|         882|  3.9492e-03|   -0.558690|
|         883|  3.9490e-03|   -0.558792|
|         884|  3.9487e-03|   -0.558893|
|         885|  3.9483e-03|   -0.558995|
|         886|  3.9481e-03|   -0.559097|
|         887|  3.9491e-03|   -0.559198|
|         888|  3.9506e-03|   -0.559300|
|         889|  3.9525e-03|   -0.559401|
|         890|  3.9546e-03|   -0.559503|
|         891|  3.9563e-03|   -0.559604|
|         892|  3.9580e-03|   -0.559706|
|         893|  3.9602e-03|   -0.559807|
|         894|  3.9621e-03|   -0.559908|
|         895|  3.9641e-03|   -0.560010|
|         896|  3.9662e-03|   -0.560111|
|         897|  3.9683e-03|   -0.560212|
|         898|  3.9705e-03|   -0.560313|
|         899|  3.9724e-03|   -0.560415|
|         900|  3.9754e-03|   -0.560516|
+-----------------------------------------------------------------------+
|        File Writing Summary       |              Filename             |
+-----------------------------------------------------------------------+
|SU2 binary restart                 |restart_flow.dat                   |
|Paraview                           |flow.vtu                           |
|Paraview surface                   |surface_flow.vtu                   |
+-----------------------------------------------------------------------+
+--------------------------------------+
|  Inner_Iter|   Time(sec)|    rms[Rho]|
+--------------------------------------+
|         901|  3.9833e-03|   -0.560617|
|         902|  3.9860e-03|   -0.560718|
|         903|  3.9888e-03|   -0.560819|
|         904|  3.9908e-03|   -0.560920|
|         905|  3.9930e-03|   -0.561021|
|         906|  3.9950e-03|   -0.561122|
|         907|  3.9970e-03|   -0.561223|
|         908|  3.9990e-03|   -0.561324|
|         909|  4.0010e-03|   -0.561425|
|         910|  4.0030e-03|   -0.561525|
|         911|  4.0051e-03|   -0.561626|
|         912|  4.0071e-03|   -0.561727|
|         913|  4.0091e-03|   -0.561828|
|         914|  4.0111e-03|   -0.561928|
|         915|  4.0131e-03|   -0.562029|
|         916|  4.0154e-03|   -0.562130|
|         917|  4.0177e-03|   -0.562230|
|         918|  4.0204e-03|   -0.562331|
|         919|  4.0225e-03|   -0.562432|
|         920|  4.0245e-03|   -0.562532|
|         921|  4.0266e-03|   -0.562633|
|         922|  4.0286e-03|   -0.562733|
|         923|  4.0307e-03|   -0.562834|
|         924|  4.0326e-03|   -0.562934|
|         925|  4.0346e-03|   -0.563035|
|         926|  4.0365e-03|   -0.563135|
|         927|  4.0386e-03|   -0.563236|
|         928|  4.0405e-03|   -0.563336|
|         929|  4.0425e-03|   -0.563436|
|         930|  4.0445e-03|   -0.563537|
|         931|  4.0465e-03|   -0.563637|
|         932|  4.0483e-03|   -0.563737|
|         933|  4.0501e-03|   -0.563838|
|         934|  4.0519e-03|   -0.563938|
|         935|  4.0537e-03|   -0.564038|
|         936|  4.0555e-03|   -0.564138|
|         937|  4.0573e-03|   -0.564239|
|         938|  4.0590e-03|   -0.564339|
|         939|  4.0608e-03|   -0.564439|
|         940|  4.0625e-03|   -0.564539|
|         941|  4.0643e-03|   -0.564639|
|         942|  4.0661e-03|   -0.564739|
|         943|  4.0680e-03|   -0.564840|
|         944|  4.0698e-03|   -0.564940|
|         945|  4.0715e-03|   -0.565040|
|         946|  4.0733e-03|   -0.565140|
|         947|  4.0752e-03|   -0.565240|
|         948|  4.0771e-03|   -0.565340|
|         949|  4.0790e-03|   -0.565440|
|         950|  4.0809e-03|   -0.565540|
|         951|  4.0828e-03|   -0.565640|
|         952|  4.0846e-03|   -0.565740|
|         953|  4.0863e-03|   -0.565841|
|         954|  4.0880e-03|   -0.565941|
|         955|  4.0897e-03|   -0.566041|
|         956|  4.0914e-03|   -0.566141|
|         957|  4.0932e-03|   -0.566241|
|         958|  4.0949e-03|   -0.566341|
|         959|  4.0967e-03|   -0.566441|
|         960|  4.0985e-03|   -0.566541|
|         961|  4.1005e-03|   -0.566641|
|         962|  4.1024e-03|   -0.566741|
|         963|  4.1043e-03|   -0.566841|
|         964|  4.1061e-03|   -0.566941|
|         965|  4.1080e-03|   -0.567041|
|         966|  4.1097e-03|   -0.567141|
|         967|  4.1115e-03|   -0.567241|
|         968|  4.1133e-03|   -0.567341|
|         969|  4.1150e-03|   -0.567441|
|         970|  4.1168e-03|   -0.567541|
|         971|  4.1186e-03|   -0.567641|
|         972|  4.1203e-03|   -0.567741|
|         973|  4.1221e-03|   -0.567841|
|         974|  4.1240e-03|   -0.567941|
|         975|  4.1256e-03|   -0.568041|
|         976|  4.1276e-03|   -0.568142|
|         977|  4.1294e-03|   -0.568242|
|         978|  4.1312e-03|   -0.568342|
|         979|  4.1328e-03|   -0.568442|
|         980|  4.1345e-03|   -0.568542|
|         981|  4.1362e-03|   -0.568642|
|         982|  4.1379e-03|   -0.568742|
|         983|  4.1396e-03|   -0.568842|
|         984|  4.1413e-03|   -0.568942|
|         985|  4.1431e-03|   -0.569043|
|         986|  4.1447e-03|   -0.569143|
|         987|  4.1465e-03|   -0.569243|
|         988|  4.1482e-03|   -0.569343|
|         989|  4.1500e-03|   -0.569443|
|         990|  4.1516e-03|   -0.569543|
|         991|  4.1533e-03|   -0.569644|
|         992|  4.1550e-03|   -0.569744|
|         993|  4.1566e-03|   -0.569844|
|         994|  4.1583e-03|   -0.569944|
|         995|  4.1600e-03|   -0.570045|
|         996|  4.1617e-03|   -0.570145|
|         997|  4.1633e-03|   -0.570245|
|         998|  4.1650e-03|   -0.570345|
|         999|  4.1667e-03|   -0.570446|
|        1000|  4.1684e-03|   -0.570546|
+-----------------------------------------------------------------------+
|        File Writing Summary       |              Filename             |
+-----------------------------------------------------------------------+
|SU2 binary restart                 |restart_flow.dat                   |
|Paraview                           |flow.vtu                           |
|Paraview surface                   |surface_flow.vtu                   |
+-----------------------------------------------------------------------+
+--------------------------------------+
|  Inner_Iter|   Time(sec)|    rms[Rho]|
+--------------------------------------+
|        1001|  4.1756e-03|   -0.570646|
|        1002|  4.1776e-03|   -0.570747|
|        1003|  4.1792e-03|   -0.570847|
|        1004|  4.1815e-03|   -0.570948|
|        1005|  4.1836e-03|   -0.571048|
|        1006|  4.1854e-03|   -0.571148|
|        1007|  4.1872e-03|   -0.571249|
|        1008|  4.1889e-03|   -0.571349|
|        1009|  4.1907e-03|   -0.571450|
|        1010|  4.1924e-03|   -0.571550|
|        1011|  4.1941e-03|   -0.571651|
|        1012|  4.1958e-03|   -0.571752|
|        1013|  4.1975e-03|   -0.571852|
|        1014|  4.1991e-03|   -0.571953|
|        1015|  4.2008e-03|   -0.572053|
|        1016|  4.2024e-03|   -0.572154|
|        1017|  4.2040e-03|   -0.572255|
|        1018|  4.2056e-03|   -0.572355|
|        1019|  4.2073e-03|   -0.572456|
|        1020|  4.2088e-03|   -0.572557|
|        1021|  4.2102e-03|   -0.572658|
|        1022|  4.2117e-03|   -0.572758|
|        1023|  4.2132e-03|   -0.572859|
|        1024|  4.2147e-03|   -0.572960|
|        1025|  4.2161e-03|   -0.573061|
|        1026|  4.2176e-03|   -0.573162|
|        1027|  4.2191e-03|   -0.573263|
|        1028|  4.2206e-03|   -0.573364|
|        1029|  4.2221e-03|   -0.573465|
|        1030|  4.2235e-03|   -0.573566|
|        1031|  4.2251e-03|   -0.573667|
|        1032|  4.2265e-03|   -0.573768|
|        1033|  4.2280e-03|   -0.573869|
|        1034|  4.2296e-03|   -0.573970|
|        1035|  4.2312e-03|   -0.574071|
|        1036|  4.2328e-03|   -0.574172|
|        1037|  4.2343e-03|   -0.574274|
|        1038|  4.2359e-03|   -0.574375|
|        1039|  4.2373e-03|   -0.574476|
|        1040|  4.2387e-03|   -0.574577|
|        1041|  4.2401e-03|   -0.574679|
|        1042|  4.2415e-03|   -0.574780|
|        1043|  4.2429e-03|   -0.574882|
|        1044|  4.2444e-03|   -0.574983|
|        1045|  4.2459e-03|   -0.575085|
|        1046|  4.2473e-03|   -0.575186|
|        1047|  4.2488e-03|   -0.575288|
|        1048|  4.2503e-03|   -0.575389|
|        1049|  4.2520e-03|   -0.575491|
|        1050|  4.2535e-03|   -0.575593|
|        1051|  4.2550e-03|   -0.575694|
|        1052|  4.2565e-03|   -0.575796|
|        1053|  4.2580e-03|   -0.575898|
|        1054|  4.2594e-03|   -0.576000|
|        1055|  4.2609e-03|   -0.576102|
|        1056|  4.2624e-03|   -0.576203|
|        1057|  4.2638e-03|   -0.576305|
|        1058|  4.2652e-03|   -0.576407|
|        1059|  4.2666e-03|   -0.576509|
|        1060|  4.2681e-03|   -0.576612|
|        1061|  4.2696e-03|   -0.576714|
|        1062|  4.2713e-03|   -0.576816|
|        1063|  4.2725e-03|   -0.576918|
|        1064|  4.2743e-03|   -0.577020|
|        1065|  4.2757e-03|   -0.577123|
|        1066|  4.2772e-03|   -0.577225|
|        1067|  4.2786e-03|   -0.577327|
|        1068|  4.2800e-03|   -0.577430|
|        1069|  4.2815e-03|   -0.577532|
|        1070|  4.2830e-03|   -0.577635|
|        1071|  4.2844e-03|   -0.577738|
|        1072|  4.2859e-03|   -0.577840|
|        1073|  4.2873e-03|   -0.577943|
|        1074|  4.2887e-03|   -0.578046|
|        1075|  4.2901e-03|   -0.578149|
|        1076|  4.2915e-03|   -0.578252|
|        1077|  4.2929e-03|   -0.578355|
|        1078|  4.2943e-03|   -0.578458|
|        1079|  4.2957e-03|   -0.578561|
|        1080|  4.2972e-03|   -0.578664|
|        1081|  4.2985e-03|   -0.578767|
|        1082|  4.2999e-03|   -0.578870|
|        1083|  4.3013e-03|   -0.578973|
|        1084|  4.3027e-03|   -0.579077|
|        1085|  4.3041e-03|   -0.579180|
|        1086|  4.3056e-03|   -0.579284|
|        1087|  4.3071e-03|   -0.579387|
|        1088|  4.3084e-03|   -0.579491|
|        1089|  4.3099e-03|   -0.579595|
|        1090|  4.3112e-03|   -0.579698|
|        1091|  4.3126e-03|   -0.579802|
|        1092|  4.3139e-03|   -0.579906|
|        1093|  4.3154e-03|   -0.580010|
|        1094|  4.3168e-03|   -0.580114|
|        1095|  4.3181e-03|   -0.580218|
|        1096|  4.3194e-03|   -0.580322|
|        1097|  4.3208e-03|   -0.580427|
|        1098|  4.3221e-03|   -0.580531|
|        1099|  4.3234e-03|   -0.580635|
|        1100|  4.3247e-03|   -0.580740|
+-----------------------------------------------------------------------+
|        File Writing Summary       |              Filename             |
+-----------------------------------------------------------------------+
|SU2 binary restart                 |restart_flow.dat                   |
|Paraview                           |flow.vtu                           |
|Paraview surface                   |surface_flow.vtu                   |
+-----------------------------------------------------------------------+
+--------------------------------------+
|  Inner_Iter|   Time(sec)|    rms[Rho]|
+--------------------------------------+
|        1101|  4.3306e-03|   -0.580844|
|        1102|  4.3319e-03|   -0.580949|
|        1103|  4.3339e-03|   -0.581054|
|        1104|  4.3355e-03|   -0.581159|
|        1105|  4.3372e-03|   -0.581264|
|        1106|  4.3393e-03|   -0.581369|
|        1107|  4.3409e-03|   -0.581474|
|        1108|  4.3422e-03|   -0.581579|
|        1109|  4.3436e-03|   -0.581684|
|        1110|  4.3454e-03|   -0.581790|
|        1111|  4.3467e-03|   -0.581895|
|        1112|  4.3478e-03|   -0.582001|
|        1113|  4.3496e-03|   -0.582106|
|        1114|  4.3512e-03|   -0.582212|
|        1115|  4.3529e-03|   -0.582318|
|        1116|  4.3541e-03|   -0.582424|
|        1117|  4.3560e-03|   -0.582530|
|        1118|  4.3576e-03|   -0.582636|
|        1119|  4.3588e-03|   -0.582742|
|        1120|  4.3606e-03|   -0.582849|
|        1121|  4.3623e-03|   -0.582955|
|        1122|  4.3638e-03|   -0.583062|
|        1123|  4.3653e-03|   -0.583168|
|        1124|  4.3672e-03|   -0.583275|
|        1125|  4.3685e-03|   -0.583382|
|        1126|  4.3698e-03|   -0.583489|
|        1127|  4.3710e-03|   -0.583596|
|        1128|  4.3717e-03|   -0.583704|
|        1129|  4.3726e-03|   -0.583811|
|        1130|  4.3736e-03|   -0.583919|
|        1131|  4.3748e-03|   -0.584026|
|        1132|  4.3758e-03|   -0.584134|
|        1133|  4.3768e-03|   -0.584242|
|        1134|  4.3765e-03|   -0.584350|
|        1135|  4.3759e-03|   -0.584458|
|        1136|  4.3751e-03|   -0.584567|
|        1137|  4.3745e-03|   -0.584675|
|        1138|  4.3739e-03|   -0.584784|
|        1139|  4.3734e-03|   -0.584892|
|        1140|  4.3728e-03|   -0.585001|
|        1141|  4.3722e-03|   -0.585110|
|        1142|  4.3716e-03|   -0.585219|
|        1143|  4.3711e-03|   -0.585329|
|        1144|  4.3705e-03|   -0.585438|
|        1145|  4.3699e-03|   -0.585548|
|        1146|  4.3692e-03|   -0.585658|
|        1147|  4.3687e-03|   -0.585767|
|        1148|  4.3681e-03|   -0.585877|
|        1149|  4.3675e-03|   -0.585988|
|        1150|  4.3669e-03|   -0.586098|
|        1151|  4.3664e-03|   -0.586208|
|        1152|  4.3658e-03|   -0.586319|
|        1153|  4.3652e-03|   -0.586430|
|        1154|  4.3647e-03|   -0.586541|
|        1155|  4.3642e-03|   -0.586652|
|        1156|  4.3636e-03|   -0.586763|
|        1157|  4.3630e-03|   -0.586875|
|        1158|  4.3625e-03|   -0.586986|
|        1159|  4.3619e-03|   -0.587098|
|        1160|  4.3613e-03|   -0.587210|
|        1161|  4.3607e-03|   -0.587322|
|        1162|  4.3601e-03|   -0.587434|
|        1163|  4.3596e-03|   -0.587547|
|        1164|  4.3590e-03|   -0.587659|
|        1165|  4.3584e-03|   -0.587772|
|        1166|  4.3579e-03|   -0.587885|
|        1167|  4.3573e-03|   -0.587998|
|        1168|  4.3568e-03|   -0.588111|
|        1169|  4.3562e-03|   -0.588225|
|        1170|  4.3556e-03|   -0.588338|
|        1171|  4.3551e-03|   -0.588452|
|        1172|  4.3546e-03|   -0.588566|
|        1173|  4.3540e-03|   -0.588680|
|        1174|  4.3534e-03|   -0.588795|
|        1175|  4.3530e-03|   -0.588909|
|        1176|  4.3524e-03|   -0.589024|
|        1177|  4.3519e-03|   -0.589138|
|        1178|  4.3515e-03|   -0.589253|
|        1179|  4.3509e-03|   -0.589369|
|        1180|  4.3504e-03|   -0.589484|
|        1181|  4.3498e-03|   -0.589599|
|        1182|  4.3493e-03|   -0.589715|
|        1183|  4.3488e-03|   -0.589831|
|        1184|  4.3482e-03|   -0.589947|
|        1185|  4.3476e-03|   -0.590063|
|        1186|  4.3471e-03|   -0.590179|
|        1187|  4.3465e-03|   -0.590296|
|        1188|  4.3460e-03|   -0.590413|
|        1189|  4.3455e-03|   -0.590529|
|        1190|  4.3449e-03|   -0.590646|
|        1191|  4.3445e-03|   -0.590764|
|        1192|  4.3452e-03|   -0.590881|
|        1193|  4.3462e-03|   -0.590998|
|        1194|  4.3476e-03|   -0.591116|
|        1195|  4.3489e-03|   -0.591234|
|        1196|  4.3502e-03|   -0.591352|
|        1197|  4.3516e-03|   -0.591470|
|        1198|  4.3529e-03|   -0.591588|
|        1199|  4.3543e-03|   -0.591707|
|        1200|  4.3557e-03|   -0.591825|
+-----------------------------------------------------------------------+
|        File Writing Summary       |              Filename             |
+-----------------------------------------------------------------------+
|SU2 binary restart                 |restart_flow.dat                   |
|Paraview                           |flow.vtu                           |
|Paraview surface                   |surface_flow.vtu                   |
+-----------------------------------------------------------------------+
+--------------------------------------+
|  Inner_Iter|   Time(sec)|    rms[Rho]|
+--------------------------------------+
|        1201|  4.3608e-03|   -0.591944|
|        1202|  4.3622e-03|   -0.592063|
|        1203|  4.3636e-03|   -0.592182|
|        1204|  4.3651e-03|   -0.592301|
|        1205|  4.3665e-03|   -0.592421|
|        1206|  4.3678e-03|   -0.592540|
|        1207|  4.3692e-03|   -0.592660|
|        1208|  4.3706e-03|   -0.592780|
|        1209|  4.3719e-03|   -0.592900|
|        1210|  4.3733e-03|   -0.593020|
|        1211|  4.3746e-03|   -0.593140|
|        1212|  4.3760e-03|   -0.593260|
|        1213|  4.3773e-03|   -0.593381|
|        1214|  4.3787e-03|   -0.593501|
|        1215|  4.3801e-03|   -0.593622|
|        1216|  4.3814e-03|   -0.593743|
|        1217|  4.3827e-03|   -0.593864|
|        1218|  4.3840e-03|   -0.593985|
|        1219|  4.3854e-03|   -0.594107|
|        1220|  4.3868e-03|   -0.594228|
|        1221|  4.3881e-03|   -0.594350|
|        1222|  4.3895e-03|   -0.594471|
|        1223|  4.3908e-03|   -0.594593|
|        1224|  4.3928e-03|   -0.594715|
|        1225|  4.3945e-03|   -0.594837|
|        1226|  4.3959e-03|   -0.594959|
|        1227|  4.3979e-03|   -0.595081|
|        1228|  4.3998e-03|   -0.595204|
|        1229|  4.4012e-03|   -0.595326|
|        1230|  4.4026e-03|   -0.595449|
|        1231|  4.4039e-03|   -0.595571|
|        1232|  4.4053e-03|   -0.595694|
|        1233|  4.4067e-03|   -0.595817|
|        1234|  4.4080e-03|   -0.595940|
|        1235|  4.4092e-03|   -0.596063|
|        1236|  4.4105e-03|   -0.596186|
|        1237|  4.4117e-03|   -0.596309|
|        1238|  4.4129e-03|   -0.596433|
|        1239|  4.4141e-03|   -0.596556|
|        1240|  4.4154e-03|   -0.596680|
|        1241|  4.4167e-03|   -0.596803|
|        1242|  4.4179e-03|   -0.596927|
|        1243|  4.4192e-03|   -0.597051|
|        1244|  4.4205e-03|   -0.597175|
|        1245|  4.4217e-03|   -0.597299|
|        1246|  4.4230e-03|   -0.597423|
|        1247|  4.4243e-03|   -0.597547|
|        1248|  4.4257e-03|   -0.597671|
|        1249|  4.4270e-03|   -0.597796|
|        1250|  4.4284e-03|   -0.597920|
|        1251|  4.4297e-03|   -0.598045|
|        1252|  4.4309e-03|   -0.598169|
|        1253|  4.4321e-03|   -0.598294|
|        1254|  4.4332e-03|   -0.598419|
|        1255|  4.4344e-03|   -0.598543|
|        1256|  4.4356e-03|   -0.598668|
|        1257|  4.4368e-03|   -0.598793|
|        1258|  4.4381e-03|   -0.598918|
|        1259|  4.4393e-03|   -0.599044|
|        1260|  4.4406e-03|   -0.599169|
|        1261|  4.4419e-03|   -0.599294|
|        1262|  4.4431e-03|   -0.599419|
|        1263|  4.4444e-03|   -0.599545|
|        1264|  4.4457e-03|   -0.599671|
|        1265|  4.4469e-03|   -0.599796|
|        1266|  4.4482e-03|   -0.599922|
|        1267|  4.4494e-03|   -0.600048|
|        1268|  4.4507e-03|   -0.600174|
|        1269|  4.4519e-03|   -0.600300|
|        1270|  4.4531e-03|   -0.600426|
|        1271|  4.4544e-03|   -0.600552|
|        1272|  4.4556e-03|   -0.600678|
|        1273|  4.4567e-03|   -0.600804|
|        1274|  4.4582e-03|   -0.600931|
|        1275|  4.4593e-03|   -0.601057|
|        1276|  4.4607e-03|   -0.601184|
|        1277|  4.4618e-03|   -0.601311|
|        1278|  4.4631e-03|   -0.601438|
|        1279|  4.4642e-03|   -0.601564|
|        1280|  4.4655e-03|   -0.601691|
|        1281|  4.4667e-03|   -0.601819|
|        1282|  4.4679e-03|   -0.601946|
|        1283|  4.4691e-03|   -0.602073|
|        1284|  4.4703e-03|   -0.602201|
|        1285|  4.4715e-03|   -0.602328|
|        1286|  4.4726e-03|   -0.602456|
|        1287|  4.4738e-03|   -0.602583|
|        1288|  4.4751e-03|   -0.602711|
|        1289|  4.4763e-03|   -0.602839|
|        1290|  4.4775e-03|   -0.602967|
|        1291|  4.4787e-03|   -0.603096|
|        1292|  4.4799e-03|   -0.603224|
|        1293|  4.4811e-03|   -0.603353|
|        1294|  4.4823e-03|   -0.603481|
|        1295|  4.4834e-03|   -0.603610|
|        1296|  4.4846e-03|   -0.603739|
|        1297|  4.4858e-03|   -0.603868|
|        1298|  4.4869e-03|   -0.603997|
|        1299|  4.4880e-03|   -0.604127|
|        1300|  4.4892e-03|   -0.604256|
+-----------------------------------------------------------------------+
|        File Writing Summary       |              Filename             |
+-----------------------------------------------------------------------+
|SU2 binary restart                 |restart_flow.dat                   |
|Paraview                           |flow.vtu                           |
|Paraview surface                   |surface_flow.vtu                   |
+-----------------------------------------------------------------------+
+--------------------------------------+
|  Inner_Iter|   Time(sec)|    rms[Rho]|
+--------------------------------------+
|        1301|  4.4938e-03|   -0.604386|
|        1302|  4.4950e-03|   -0.604516|
|        1303|  4.4962e-03|   -0.604646|
|        1304|  4.4973e-03|   -0.604776|
|        1305|  4.4983e-03|   -0.604906|
|        1306|  4.4995e-03|   -0.605036|
|        1307|  4.5007e-03|   -0.605167|
|        1308|  4.5019e-03|   -0.605298|
|        1309|  4.5030e-03|   -0.605429|
|        1310|  4.5032e-03|   -0.605560|
|        1311|  4.5025e-03|   -0.605691|
|        1312|  4.5019e-03|   -0.605823|
|        1313|  4.5013e-03|   -0.605955|
|        1314|  4.5006e-03|   -0.606087|
|        1315|  4.5011e-03|   -0.606219|
|        1316|  4.5027e-03|   -0.606351|
|        1317|  4.5039e-03|   -0.606484|
|        1318|  4.5046e-03|   -0.606617|
|        1319|  4.5056e-03|   -0.606750|
|        1320|  4.5066e-03|   -0.606883|
|        1321|  4.5075e-03|   -0.607016|
|        1322|  4.5086e-03|   -0.607150|
|        1323|  4.5095e-03|   -0.607284|
|        1324|  4.5105e-03|   -0.607418|
|        1325|  4.5119e-03|   -0.607552|
|        1326|  4.5133e-03|   -0.607687|
|        1327|  4.5145e-03|   -0.607822|
|        1328|  4.5163e-03|   -0.607957|
|        1329|  4.5177e-03|   -0.608093|
|        1330|  4.5189e-03|   -0.608228|
|        1331|  4.5203e-03|   -0.608364|
|        1332|  4.5217e-03|   -0.608500|
|        1333|  4.5229e-03|   -0.608637|
|        1334|  4.5243e-03|   -0.608773|
|        1335|  4.5258e-03|   -0.608910|
|        1336|  4.5269e-03|   -0.609048|
|        1337|  4.5282e-03|   -0.609185|
|        1338|  4.5298e-03|   -0.609323|
|        1339|  4.5310e-03|   -0.609461|
|        1340|  4.5324e-03|   -0.609600|
|        1341|  4.5340e-03|   -0.609738|
|        1342|  4.5351e-03|   -0.609877|
|        1343|  4.5362e-03|   -0.610017|
|        1344|  4.5373e-03|   -0.610156|
|        1345|  4.5384e-03|   -0.610296|
|        1346|  4.5378e-03|   -0.610437|
|        1347|  4.5371e-03|   -0.610577|
|        1348|  4.5364e-03|   -0.610718|
|        1349|  4.5358e-03|   -0.610859|
|        1350|  4.5351e-03|   -0.611001|
|        1351|  4.5344e-03|   -0.611143|
|        1352|  4.5337e-03|   -0.611285|
|        1353|  4.5331e-03|   -0.611428|
|        1354|  4.5324e-03|   -0.611570|
|        1355|  4.5320e-03|   -0.611714|
|        1356|  4.5313e-03|   -0.611857|
|        1357|  4.5307e-03|   -0.612001|
|        1358|  4.5301e-03|   -0.612146|
|        1359|  4.5296e-03|   -0.612290|
|        1360|  4.5289e-03|   -0.612435|
|        1361|  4.5283e-03|   -0.612581|
|        1362|  4.5277e-03|   -0.612726|
|        1363|  4.5271e-03|   -0.612873|
|        1364|  4.5267e-03|   -0.613019|
|        1365|  4.5261e-03|   -0.613166|
|        1366|  4.5255e-03|   -0.613313|
|        1367|  4.5249e-03|   -0.613461|
|        1368|  4.5243e-03|   -0.613609|
|        1369|  4.5237e-03|   -0.613757|
|        1370|  4.5231e-03|   -0.613906|
|        1371|  4.5225e-03|   -0.614055|
|        1372|  4.5219e-03|   -0.614205|
|        1373|  4.5213e-03|   -0.614355|
|        1374|  4.5207e-03|   -0.614505|
|        1375|  4.5201e-03|   -0.614656|
|        1376|  4.5195e-03|   -0.614807|
|        1377|  4.5189e-03|   -0.614959|
|        1378|  4.5188e-03|   -0.615111|
|        1379|  4.5182e-03|   -0.615263|
|        1380|  4.5175e-03|   -0.615416|
|        1381|  4.5168e-03|   -0.615569|
|        1382|  4.5162e-03|   -0.615723|
|        1383|  4.5156e-03|   -0.615877|
|        1384|  4.5149e-03|   -0.616032|
|        1385|  4.5143e-03|   -0.616187|
|        1386|  4.5136e-03|   -0.616342|
|        1387|  4.5130e-03|   -0.616498|
|        1388|  4.5124e-03|   -0.616654|
|        1389|  4.5117e-03|   -0.616811|
|        1390|  4.5111e-03|   -0.616968|
|        1391|  4.5104e-03|   -0.617125|
|        1392|  4.5098e-03|   -0.617283|
|        1393|  4.5092e-03|   -0.617442|
|        1394|  4.5086e-03|   -0.617601|
|        1395|  4.5081e-03|   -0.617760|
|        1396|  4.5075e-03|   -0.617920|
|        1397|  4.5069e-03|   -0.618080|
|        1398|  4.5063e-03|   -0.618241|
|        1399|  4.5058e-03|   -0.618402|
|        1400|  4.5052e-03|   -0.618563|
+-----------------------------------------------------------------------+
|        File Writing Summary       |              Filename             |
+-----------------------------------------------------------------------+
|SU2 binary restart                 |restart_flow.dat                   |
|Paraview                           |flow.vtu                           |
|Paraview surface                   |surface_flow.vtu                   |
+-----------------------------------------------------------------------+
+--------------------------------------+
|  Inner_Iter|   Time(sec)|    rms[Rho]|
+--------------------------------------+
|        1401|  4.5072e-03|   -0.618725|
|        1402|  4.5066e-03|   -0.618888|
|        1403|  4.5060e-03|   -0.619051|
|        1404|  4.5054e-03|   -0.619214|
|        1405|  4.5047e-03|   -0.619378|
|        1406|  4.5041e-03|   -0.619542|
|        1407|  4.5035e-03|   -0.619707|
|        1408|  4.5028e-03|   -0.619873|
|        1409|  4.5022e-03|   -0.620038|
|        1410|  4.5016e-03|   -0.620205|
|        1411|  4.5010e-03|   -0.620371|
|        1412|  4.5004e-03|   -0.620538|
|        1413|  4.4998e-03|   -0.620706|
|        1414|  4.4994e-03|   -0.620874|
|        1415|  4.4992e-03|   -0.621043|
|        1416|  4.4987e-03|   -0.621212|
|        1417|  4.4982e-03|   -0.621382|
|        1418|  4.4977e-03|   -0.621552|
|        1419|  4.4971e-03|   -0.621722|
|        1420|  4.4964e-03|   -0.621893|
|        1421|  4.4958e-03|   -0.622065|
|        1422|  4.4952e-03|   -0.622237|
|        1423|  4.4946e-03|   -0.622410|
|        1424|  4.4941e-03|   -0.622583|
|        1425|  4.4935e-03|   -0.622756|
|        1426|  4.4929e-03|   -0.622930|
|        1427|  4.4924e-03|   -0.623105|
|        1428|  4.4919e-03|   -0.623280|
|        1429|  4.4913e-03|   -0.623456|
|        1430|  4.4908e-03|   -0.623632|
|        1431|  4.4903e-03|   -0.623808|
|        1432|  4.4897e-03|   -0.623985|
|        1433|  4.4891e-03|   -0.624163|
|        1434|  4.4886e-03|   -0.624341|
|        1435|  4.4881e-03|   -0.624520|
|        1436|  4.4876e-03|   -0.624699|
|        1437|  4.4870e-03|   -0.624879|
|        1438|  4.4865e-03|   -0.625059|
|        1439|  4.4859e-03|   -0.625240|
|        1440|  4.4854e-03|   -0.625421|
|        1441|  4.4849e-03|   -0.625603|
|        1442|  4.4843e-03|   -0.625785|
|        1443|  4.4838e-03|   -0.625968|
|        1444|  4.4832e-03|   -0.626151|
|        1445|  4.4827e-03|   -0.626335|
|        1446|  4.4822e-03|   -0.626519|
|        1447|  4.4816e-03|   -0.626704|
|        1448|  4.4811e-03|   -0.626890|
|        1449|  4.4806e-03|   -0.627076|
|        1450|  4.4800e-03|   -0.627262|
|        1451|  4.4795e-03|   -0.627449|
|        1452|  4.4790e-03|   -0.627637|
|        1453|  4.4784e-03|   -0.627825|
|        1454|  4.4779e-03|   -0.628014|
|        1455|  4.4773e-03|   -0.628203|
|        1456|  4.4768e-03|   -0.628393|
|        1457|  4.4763e-03|   -0.628583|
|        1458|  4.4758e-03|   -0.628774|
|        1459|  4.4753e-03|   -0.628966|
[...]
|        2601|  4.2005e-03|   -1.053271|
|        2602|  4.2005e-03|   -1.053676|
|        2603|  4.2003e-03|   -1.054081|
|        2604|  4.2001e-03|   -1.054487|
|        2605|  4.1999e-03|   -1.054892|
|        2606|  4.1997e-03|   -1.055297|
|        2607|  4.1995e-03|   -1.055702|
|        2608|  4.1993e-03|   -1.056106|
|        2609|  4.1991e-03|   -1.056511|
|        2610|  4.1991e-03|   -1.056916|
|        2611|  4.1989e-03|   -1.057320|
|        2612|  4.1987e-03|   -1.057725|
|        2613|  4.1985e-03|   -1.058129|
|        2614|  4.1987e-03|   -1.058533|
|        2615|  4.1991e-03|   -1.058938|
|        2616|  4.1989e-03|   -1.059342|
|        2617|  4.1987e-03|   -1.059746|
|        2618|  4.1987e-03|   -1.060150|
|        2619|  4.1995e-03|   -1.060554|
|        2620|  4.2001e-03|   -1.060957|
|        2621|  4.2001e-03|   -1.061361|
|        2622|  4.2002e-03|   -1.061765|
|        2623|  4.2002e-03|   -1.062168|
|        2624|  4.2001e-03|   -1.062572|
|        2625|  4.2000e-03|   -1.062975|
|        2626|  4.1998e-03|   -1.063378|
|        2627|  4.1996e-03|   -1.063781|
|        2628|  4.1994e-03|   -1.064185|
|        2629|  4.1991e-03|   -1.064587|
|        2630|  4.1989e-03|   -1.064990|
|        2631|  4.1987e-03|   -1.065393|
|        2632|  4.1985e-03|   -1.065796|
|        2633|  4.1983e-03|   -1.066199|
|        2634|  4.1981e-03|   -1.066601|
|        2635|  4.1979e-03|   -1.067004|
|        2636|  4.1977e-03|   -1.067406|
|        2637|  4.1975e-03|   -1.067808|
|        2638|  4.1973e-03|   -1.068210|
|        2639|  4.1972e-03|   -1.068612|
|        2640|  4.1970e-03|   -1.069014|
|        2641|  4.1969e-03|   -1.069416|
|        2642|  4.1967e-03|   -1.069818|
|        2643|  4.1965e-03|   -1.070220|
|        2644|  4.1963e-03|   -1.070622|
|        2645|  4.1962e-03|   -1.071023|
|        2646|  4.1963e-03|   -1.071425|
|        2647|  4.1961e-03|   -1.071826|
|        2648|  4.1959e-03|   -1.072227|
|        2649|  4.1957e-03|   -1.072629|
|        2650|  4.1955e-03|   -1.073030|
|        2651|  4.1953e-03|   -1.073431|
|        2652|  4.1951e-03|   -1.073832|
|        2653|  4.1949e-03|   -1.074232|
|        2654|  4.1947e-03|   -1.074633|
|        2655|  4.1945e-03|   -1.075034|
|        2656|  4.1943e-03|   -1.075434|
|        2657|  4.1941e-03|   -1.075835|
|        2658|  4.1939e-03|   -1.076235|
|        2659|  4.1937e-03|   -1.076636|
|        2660|  4.1935e-03|   -1.077036|
|        2661|  4.1933e-03|   -1.077436|
|        2662|  4.1932e-03|   -1.077836|
|        2663|  4.1930e-03|   -1.078236|
|        2664|  4.1928e-03|   -1.078636|
|        2665|  4.1927e-03|   -1.079035|
|        2666|  4.1925e-03|   -1.079435|
|        2667|  4.1924e-03|   -1.079835|
|        2668|  4.1922e-03|   -1.080234|
|        2669|  4.1920e-03|   -1.080634|
|        2670|  4.1918e-03|   -1.081033|
|        2671|  4.1916e-03|   -1.081432|
|        2672|  4.1915e-03|   -1.081831|
|        2673|  4.1913e-03|   -1.082230|
|        2674|  4.1911e-03|   -1.082629|
|        2675|  4.1909e-03|   -1.083028|
|        2676|  4.1914e-03|   -1.083427|
|        2677|  4.1914e-03|   -1.083825|
|        2678|  4.1912e-03|   -1.084224|
|        2679|  4.1910e-03|   -1.084622|
|        2680|  4.1918e-03|   -1.085021|
|        2681|  4.1923e-03|   -1.085419|
|        2682|  4.1921e-03|   -1.085817|
|        2683|  4.1922e-03|   -1.086215|
|        2684|  4.1922e-03|   -1.086613|
|        2685|  4.1922e-03|   -1.087011|
|        2686|  4.1920e-03|   -1.087409|
|        2687|  4.1918e-03|   -1.087807|
|        2688|  4.1917e-03|   -1.088204|
|        2689|  4.1915e-03|   -1.088602|
|        2690|  4.1913e-03|   -1.088999|
|        2691|  4.1911e-03|   -1.089397|
|        2692|  4.1909e-03|   -1.089794|
|        2693|  4.1907e-03|   -1.090191|
|        2694|  4.1905e-03|   -1.090588|
|        2695|  4.1903e-03|   -1.090985|
|        2696|  4.1903e-03|   -1.091382|
|        2697|  4.1902e-03|   -1.091779|
|        2698|  4.1900e-03|   -1.092176|
|        2699|  4.1898e-03|   -1.092572|
|        2700|  4.1896e-03|   -1.092969|
+-----------------------------------------------------------------------+
|        File Writing Summary       |              Filename             |
+-----------------------------------------------------------------------+
|SU2 binary restart                 |restart_flow.dat                   |
|Paraview                           |flow.vtu                           |
|Paraview surface                   |surface_flow.vtu                   |
+-----------------------------------------------------------------------+
+--------------------------------------+
|  Inner_Iter|   Time(sec)|    rms[Rho]|
+--------------------------------------+
|        2701|  4.1907e-03|   -1.093365|
|        2702|  4.1905e-03|   -1.093762|
|        2703|  4.1903e-03|   -1.094158|
|        2704|  4.1901e-03|   -1.094554|
|        2705|  4.1899e-03|   -1.094950|
|        2706|  4.1898e-03|   -1.095346|
|        2707|  4.1896e-03|   -1.095742|
|        2708|  4.1894e-03|   -1.096138|
|        2709|  4.1893e-03|   -1.096533|
|        2710|  4.1890e-03|   -1.096929|
|        2711|  4.1888e-03|   -1.097324|
|        2712|  4.1886e-03|   -1.097720|
|        2713|  4.1884e-03|   -1.098115|
|        2714|  4.1882e-03|   -1.098510|
|        2715|  4.1880e-03|   -1.098905|
|        2716|  4.1881e-03|   -1.099300|
|        2717|  4.1880e-03|   -1.099695|
|        2718|  4.1878e-03|   -1.100090|
|        2719|  4.1876e-03|   -1.100485|
|        2720|  4.1874e-03|   -1.100880|
|        2721|  4.1872e-03|   -1.101274|
|        2722|  4.1870e-03|   -1.101669|
|        2723|  4.1868e-03|   -1.102063|
|        2724|  4.1867e-03|   -1.102457|
|        2725|  4.1865e-03|   -1.102852|
|        2726|  4.1864e-03|   -1.103246|
|        2727|  4.1862e-03|   -1.103640|
|        2728|  4.1860e-03|   -1.104033|
|        2729|  4.1858e-03|   -1.104427|
|        2730|  4.1857e-03|   -1.104821|
|        2731|  4.1855e-03|   -1.105215|
|        2732|  4.1853e-03|   -1.105608|
|        2733|  4.1851e-03|   -1.106002|
|        2734|  4.1850e-03|   -1.106395|
|        2735|  4.1848e-03|   -1.106788|
|        2736|  4.1846e-03|   -1.107181|
|        2737|  4.1845e-03|   -1.107574|
|        2738|  4.1843e-03|   -1.107967|
|        2739|  4.1842e-03|   -1.108360|
|        2740|  4.1840e-03|   -1.108753|
|        2741|  4.1839e-03|   -1.109146|
|        2742|  4.1837e-03|   -1.109538|
|        2743|  4.1835e-03|   -1.109931|
|        2744|  4.1834e-03|   -1.110323|
|        2745|  4.1832e-03|   -1.110715|
|        2746|  4.1831e-03|   -1.111108|
|        2747|  4.1829e-03|   -1.111500|
|        2748|  4.1828e-03|   -1.111892|
|        2749|  4.1826e-03|   -1.112284|
|        2750|  4.1824e-03|   -1.112675|
|        2751|  4.1822e-03|   -1.113067|
|        2752|  4.1821e-03|   -1.113459|
|        2753|  4.1819e-03|   -1.113850|
|        2754|  4.1818e-03|   -1.114242|
|        2755|  4.1816e-03|   -1.114633|
|        2756|  4.1815e-03|   -1.115024|
|        2757|  4.1813e-03|   -1.115416|
|        2758|  4.1811e-03|   -1.115807|
|        2759|  4.1809e-03|   -1.116198|
|        2760|  4.1808e-03|   -1.116588|
|        2761|  4.1806e-03|   -1.116979|
|        2762|  4.1804e-03|   -1.117370|
|        2763|  4.1803e-03|   -1.117761|
|        2764|  4.1801e-03|   -1.118151|
|        2765|  4.1799e-03|   -1.118541|
|        2766|  4.1798e-03|   -1.118932|
|        2767|  4.1796e-03|   -1.119322|
|        2768|  4.1795e-03|   -1.119712|
|        2769|  4.1793e-03|   -1.120102|
|        2770|  4.1791e-03|   -1.120492|
|        2771|  4.1790e-03|   -1.120882|
|        2772|  4.1788e-03|   -1.121272|
|        2773|  4.1786e-03|   -1.121661|
|        2774|  4.1785e-03|   -1.122051|
|        2775|  4.1783e-03|   -1.122440|
|        2776|  4.1781e-03|   -1.122830|
|        2777|  4.1780e-03|   -1.123219|
|        2778|  4.1778e-03|   -1.123608|
|        2779|  4.1776e-03|   -1.123997|
|        2780|  4.1774e-03|   -1.124386|
|        2781|  4.1773e-03|   -1.124775|
|        2782|  4.1771e-03|   -1.125164|
|        2783|  4.1770e-03|   -1.125553|
|        2784|  4.1769e-03|   -1.125941|
|        2785|  4.1767e-03|   -1.126330|
|        2786|  4.1765e-03|   -1.126718|
|        2787|  4.1763e-03|   -1.127106|
|        2788|  4.1762e-03|   -1.127495|
|        2789|  4.1760e-03|   -1.127883|
|        2790|  4.1758e-03|   -1.128271|
|        2791|  4.1757e-03|   -1.128659|
|        2792|  4.1755e-03|   -1.129047|
|        2793|  4.1754e-03|   -1.129434|
|        2794|  4.1752e-03|   -1.129822|
|        2795|  4.1750e-03|   -1.130210|
|        2796|  4.1749e-03|   -1.130597|
|        2797|  4.1748e-03|   -1.130984|
|        2798|  4.1747e-03|   -1.131372|
|        2799|  4.1745e-03|   -1.131759|
|        2800|  4.1743e-03|   -1.132146|
+-----------------------------------------------------------------------+
|        File Writing Summary       |              Filename             |
+-----------------------------------------------------------------------+
|SU2 binary restart                 |restart_flow.dat                   |
|Paraview                           |flow.vtu                           |
|Paraview surface                   |surface_flow.vtu                   |
+-----------------------------------------------------------------------+
+--------------------------------------+
|  Inner_Iter|   Time(sec)|    rms[Rho]|
+--------------------------------------+
|        2801|  4.1753e-03|   -1.132533|
|        2802|  4.1752e-03|   -1.132920|
|        2803|  4.1751e-03|   -1.133307|
|        2804|  4.1749e-03|   -1.133693|
|        2805|  4.1751e-03|   -1.134080|
|        2806|  4.1751e-03|   -1.134466|
|        2807|  4.1752e-03|   -1.134853|
|        2808|  4.1750e-03|   -1.135239|
|        2809|  4.1749e-03|   -1.135625|
|        2810|  4.1747e-03|   -1.136012|
|        2811|  4.1746e-03|   -1.136398|
|        2812|  4.1745e-03|   -1.136784|
|        2813|  4.1745e-03|   -1.137169|
|        2814|  4.1745e-03|   -1.137555|
|        2815|  4.1745e-03|   -1.137941|
|        2816|  4.1743e-03|   -1.138326|
|        2817|  4.1742e-03|   -1.138712|
|        2818|  4.1740e-03|   -1.139097|
|        2819|  4.1738e-03|   -1.139483|
|        2820|  4.1738e-03|   -1.139868|
|        2821|  4.1737e-03|   -1.140253|
|        2822|  4.1738e-03|   -1.140638|
|        2823|  4.1738e-03|   -1.141023|
|        2824|  4.1747e-03|   -1.141408|
|        2825|  4.1748e-03|   -1.141792|
|        2826|  4.1747e-03|   -1.142177|
|        2827|  4.1749e-03|   -1.142562|
|        2828|  4.1749e-03|   -1.142946|
|        2829|  4.1748e-03|   -1.143330|
|        2830|  4.1747e-03|   -1.143715|
|        2831|  4.1748e-03|   -1.144099|
|        2832|  4.1748e-03|   -1.144483|
|        2833|  4.1747e-03|   -1.144867|
|        2834|  4.1746e-03|   -1.145251|
|        2835|  4.1745e-03|   -1.145634|
|        2836|  4.1745e-03|   -1.146018|
|        2837|  4.1745e-03|   -1.146402|
|        2838|  4.1745e-03|   -1.146785|
|        2839|  4.1744e-03|   -1.147169|
|        2840|  4.1742e-03|   -1.147552|
|        2841|  4.1740e-03|   -1.147935|
|        2842|  4.1739e-03|   -1.148318|
|        2843|  4.1739e-03|   -1.148701|
|        2844|  4.1738e-03|   -1.149084|
|        2845|  4.1739e-03|   -1.149467|
|        2846|  4.1739e-03|   -1.149850|
|        2847|  4.1738e-03|   -1.150233|
|        2848|  4.1737e-03|   -1.150615|
|        2849|  4.1735e-03|   -1.150998|
|        2850|  4.1734e-03|   -1.151380|
|        2851|  4.1733e-03|   -1.151762|
|        2852|  4.1731e-03|   -1.152144|
|        2853|  4.1732e-03|   -1.152526|
|        2854|  4.1732e-03|   -1.152908|
|        2855|  4.1731e-03|   -1.153290|
|        2856|  4.1729e-03|   -1.153672|
|        2857|  4.1728e-03|   -1.154054|
|        2858|  4.1726e-03|   -1.154436|
|        2859|  4.1726e-03|   -1.154817|
|        2860|  4.1724e-03|   -1.155198|
|        2861|  4.1725e-03|   -1.155580|
|        2862|  4.1725e-03|   -1.155961|
|        2863|  4.1725e-03|   -1.156342|
|        2864|  4.1723e-03|   -1.156723|
|        2865|  4.1722e-03|   -1.157104|
|        2866|  4.1720e-03|   -1.157485|
|        2867|  4.1720e-03|   -1.157866|
|        2868|  4.1718e-03|   -1.158247|
|        2869|  4.1719e-03|   -1.158627|
|        2870|  4.1720e-03|   -1.159008|
|        2871|  4.1719e-03|   -1.159388|
|        2872|  4.1718e-03|   -1.159768|
|        2873|  4.1717e-03|   -1.160149|
|        2874|  4.1715e-03|   -1.160529|
|        2875|  4.1715e-03|   -1.160909|
|        2876|  4.1713e-03|   -1.161289|
|        2877|  4.1714e-03|   -1.161669|
|        2878|  4.1715e-03|   -1.162048|
|        2879|  4.1717e-03|   -1.162428|
|        2880|  4.1724e-03|   -1.162808|
|        2881|  4.1727e-03|   -1.163187|
|        2882|  4.1727e-03|   -1.163567|
|        2883|  4.1725e-03|   -1.163946|
|        2884|  4.1727e-03|   -1.164325|
|        2885|  4.1727e-03|   -1.164704|
|        2886|  4.1726e-03|   -1.165083|
|        2887|  4.1724e-03|   -1.165462|
|        2888|  4.1723e-03|   -1.165841|
|        2889|  4.1721e-03|   -1.166220|
|        2890|  4.1721e-03|   -1.166598|
|        2891|  4.1719e-03|   -1.166977|
|        2892|  4.1720e-03|   -1.167355|
|        2893|  4.1721e-03|   -1.167734|
|        2894|  4.1720e-03|   -1.168112|
|        2895|  4.1718e-03|   -1.168490|
|        2896|  4.1717e-03|   -1.168868|
|        2897|  4.1715e-03|   -1.169246|
|        2898|  4.1715e-03|   -1.169624|
|        2899|  4.1713e-03|   -1.170002|
|        2900|  4.1714e-03|   -1.170380|
+-----------------------------------------------------------------------+
|        File Writing Summary       |              Filename             |
+-----------------------------------------------------------------------+
|SU2 binary restart                 |restart_flow.dat                   |
|Paraview                           |flow.vtu                           |
|Paraview surface                   |surface_flow.vtu                   |
+-----------------------------------------------------------------------+
+--------------------------------------+
|  Inner_Iter|   Time(sec)|    rms[Rho]|
+--------------------------------------+
|        2901|  4.1727e-03|   -1.170757|
|        2902|  4.1726e-03|   -1.171135|
|        2903|  4.1724e-03|   -1.171512|
|        2904|  4.1723e-03|   -1.171890|
|        2905|  4.1722e-03|   -1.172267|
|        2906|  4.1721e-03|   -1.172644|
|        2907|  4.1722e-03|   -1.173021|
|        2908|  4.1723e-03|   -1.173398|
|        2909|  4.1722e-03|   -1.173775|
|        2910|  4.1720e-03|   -1.174152|
|        2911|  4.1719e-03|   -1.174529|
|        2912|  4.1717e-03|   -1.174905|
|        2913|  4.1717e-03|   -1.175282|
|        2914|  4.1716e-03|   -1.175658|
|        2915|  4.1717e-03|   -1.176034|
|        2916|  4.1717e-03|   -1.176411|
|        2917|  4.1716e-03|   -1.176787|
|        2918|  4.1715e-03|   -1.177163|
|        2919|  4.1716e-03|   -1.177539|
|        2920|  4.1716e-03|   -1.177915|
|        2921|  4.1715e-03|   -1.178291|
|        2922|  4.1714e-03|   -1.178666|
|        2923|  4.1715e-03|   -1.179042|
|        2924|  4.1715e-03|   -1.179417|
|        2925|  4.1714e-03|   -1.179793|
|        2926|  4.1712e-03|   -1.180168|
|        2927|  4.1711e-03|   -1.180543|
|        2928|  4.1709e-03|   -1.180919|
|        2929|  4.1709e-03|   -1.181294|
|        2930|  4.1707e-03|   -1.181669|
|        2931|  4.1709e-03|   -1.182043|
|        2932|  4.1709e-03|   -1.182418|
|        2933|  4.1708e-03|   -1.182793|
|        2934|  4.1706e-03|   -1.183168|
|        2935|  4.1705e-03|   -1.183542|
|        2936|  4.1703e-03|   -1.183917|
|        2937|  4.1703e-03|   -1.184291|
|        2938|  4.1701e-03|   -1.184665|
|        2939|  4.1702e-03|   -1.185039|
|        2940|  4.1703e-03|   -1.185413|
|        2941|  4.1702e-03|   -1.185787|
|        2942|  4.1701e-03|   -1.186161|
|        2943|  4.1699e-03|   -1.186535|
|        2944|  4.1698e-03|   -1.186909|
|        2945|  4.1697e-03|   -1.187282|
|        2946|  4.1696e-03|   -1.187656|
|        2947|  4.1697e-03|   -1.188029|
|        2948|  4.1696e-03|   -1.188403|
|        2949|  4.1696e-03|   -1.188776|
|        2950|  4.1695e-03|   -1.189149|
|        2951|  4.1693e-03|   -1.189522|
|        2952|  4.1691e-03|   -1.189895|
|        2953|  4.1691e-03|   -1.190268|
|        2954|  4.1689e-03|   -1.190641|
|        2955|  4.1690e-03|   -1.191013|
|        2956|  4.1689e-03|   -1.191386|
|        2957|  4.1689e-03|   -1.191759|
|        2958|  4.1688e-03|   -1.192131|
|        2959|  4.1686e-03|   -1.192503|
|        2960|  4.1685e-03|   -1.192876|
|        2961|  4.1684e-03|   -1.193248|
|        2962|  4.1682e-03|   -1.193620|
|        2963|  4.1683e-03|   -1.193992|
|        2964|  4.1683e-03|   -1.194364|
|        2965|  4.1683e-03|   -1.194736|
|        2966|  4.1681e-03|   -1.195107|
|        2967|  4.1680e-03|   -1.195479|
|        2968|  4.1678e-03|   -1.195850|
|        2969|  4.1676e-03|   -1.196222|
|        2970|  4.1684e-03|   -1.196593|
|        2971|  4.1687e-03|   -1.196964|
|        2972|  4.1685e-03|   -1.197336|
|        2973|  4.1685e-03|   -1.197707|
|        2974|  4.1685e-03|   -1.198078|
|        2975|  4.1685e-03|   -1.198449|
|        2976|  4.1683e-03|   -1.198819|
|        2977|  4.1683e-03|   -1.199190|
|        2978|  4.1682e-03|   -1.199561|
|        2979|  4.1683e-03|   -1.199931|
|        2980|  4.1683e-03|   -1.200302|
|        2981|  4.1682e-03|   -1.200672|
|        2982|  4.1681e-03|   -1.201043|
|        2983|  4.1679e-03|   -1.201413|
|        2984|  4.1678e-03|   -1.201783|
|        2985|  4.1678e-03|   -1.202153|
|        2986|  4.1676e-03|   -1.202523|
|        2987|  4.1677e-03|   -1.202893|
|        2988|  4.1678e-03|   -1.203262|
|        2989|  4.1676e-03|   -1.203632|
|        2990|  4.1675e-03|   -1.204002|
|        2991|  4.1674e-03|   -1.204371|
|        2992|  4.1672e-03|   -1.204740|
|        2993|  4.1672e-03|   -1.205110|
|        2994|  4.1670e-03|   -1.205479|
|        2995|  4.1672e-03|   -1.205848|
|        2996|  4.1672e-03|   -1.206217|
|        2997|  4.1671e-03|   -1.206586|
|        2998|  4.1670e-03|   -1.206955|
|        2999|  4.1668e-03|   -1.207324|

----------------------------- Solver Exit -------------------------------

Maximum number of iterations reached (ITER = 3000) before convergence.
+-----------------------------------------------------------------------+
|      Convergence Field     |     Value    |   Criterion  |  Converged |
+-----------------------------------------------------------------------+
|                    rms[Rho]|      -1.20732|         < -11|          No|
+-----------------------------------------------------------------------+
-------------------------------------------------------------------------
+-----------------------------------------------------------------------+
|        File Writing Summary       |              Filename             |
+-----------------------------------------------------------------------+
|SU2 binary restart                 |restart_flow.dat                   |
|Paraview                           |flow.vtu                           |
|Paraview surface                   |surface_flow.vtu                   |
+-----------------------------------------------------------------------+

------------------------- Solver Postprocessing -------------------------
Deleted CNumerics container.
Deleted CIntegration container.
Deleted CSolver container.
Deleted CIteration container.
Deleted CInterface container.
Deleted CGeometry container.
Deleted CFreeFormDefBox class.
Deleted CSurfaceMovement class.
Deleted CVolumetricMovement class.
Deleted CConfig container.
Deleted nInst container.
Deleted COutput class.
-------------------------------------------------------------------------

------------------------- Exit Success (SU2_CFD) ------------------------

