
-------------------------------------------------------------------------
|    ___ _   _ ___                                                      |
|   / __| | | |_  )   Release 7.5.1 "Blackbird"                         |
|   \__ \ |_| |/ /                                                      |
|   |___/\___//___|   Suite (Computational Fluid Dynamics Code)         |
|                                                                       |
-------------------------------------------------------------------------
| SU2 Project Website: https://su2code.github.io                        |
|                                                                       |
| The SU2 Project is maintained by the SU2 Foundation                   |
| (http://su2foundation.org)                                            |
-------------------------------------------------------------------------
| Copyright 2012-2023, SU2 Contributors                                 |
|                                                                       |
| SU2 is free software; you can redistribute it and/or                  |
| modify it under the terms of the GNU Lesser General Public            |
| License as published by the Free Software Foundation; either          |
| version 2.1 of the License, or (at your option) any later version.    |
|                                                                       |
| SU2 is distributed in the hope that it will be useful,                |
| but WITHOUT ANY WARRANTY; without even the implied warranty of        |
| MERCHANTABILITY or FITNESS FOR A PARTICULAR PURPOSE. See the GNU      |
| Lesser General Public License for more details.                       |
|                                                                       |
| You should have received a copy of the GNU Lesser General Public      |
| License along with SU2. If not, see <http://www.gnu.org/licenses/>.   |
-------------------------------------------------------------------------

Parsing config file for zone 0

----------------- Physical Case Definition ( Zone 0 ) -------------------
Compressible Euler equations.
Mach number: 1e-09.
Angle of attack (AoA): 0 deg, and angle of sideslip (AoS): 0 deg.
No restart solution, use the values at infinity (freestream).
Dimensional simulation.
The reference area is 1 m^2.
The semi-span will be computed using the max y(3D) value.
The reference length is 1 m.
Input mesh file name: mesh.su2

--------------- Space Numerical Integration ( Zone 0 ) ------------------
Roe (with entropy fix = 0.1) solver for the flow inviscid terms.
Standard Roe without low-dissipation function.
Second order integration in space, with slope limiter.
Van Albada slope-limiting method implemented by edges.
Gradient for upwind reconstruction: Green-Gauss.
Gradient for viscous and source terms: Green-Gauss.

--------------- Time Numerical Integration  ( Zone 0 ) ------------------
Local time stepping (steady state simulation).
Euler implicit method for the flow equations.
FGMRES is used for solving the linear system.
Using a ILU(0) preconditioning.
Convergence criteria of the linear solver: 1e-06.
Max number of linear iterations: 10.
CFL adaptation. Factor down: 0.1, factor up: 5,
                lower limit: 10, upper limit: 1000,
                acceptable linear residual: 0.001.
Courant-Friedrichs-Lewy number:       10

------------------ Convergence Criteria  ( Zone 0 ) ---------------------
Maximum number of solver subiterations: 10000.
Begin convergence monitoring at iteration 10.
Residual minimum value: 1e-11.
Cauchy series min. value: 1e-10.
Number of Cauchy elements: 100.
Begin windowed time average at iteration 0.

-------------------- Output Information ( Zone 0 ) ----------------------
File writing frequency: 
+------------------------------------+
|                     File| Frequency|
+------------------------------------+
|                  RESTART|       100|
|                 PARAVIEW|       100|
|         SURFACE_PARAVIEW|       100|
+------------------------------------+
Writing the convergence history file every 1 inner iterations.
Writing the screen convergence history every 1 inner iterations.
The tabular file format is CSV (.csv).
Convergence history file name: history.
Forces breakdown file name: forces_breakdown.dat.
Surface file name: surface_flow.
Volume file name: flow.
Restart file name: restart_flow.dat.

------------- Config File Boundary Information ( Zone 0 ) ---------------
+-----------------------------------------------------------------------+
|                        Marker Type|                        Marker Name|
+-----------------------------------------------------------------------+
|                         Euler wall|                               WALL|
+-----------------------------------------------------------------------+
|                     Symmetry plane|                           SYMMETRY|
+-----------------------------------------------------------------------+
|                   Riemann boundary|                              INLET|
|                                   |                             OUTLET|
+-----------------------------------------------------------------------+

-------------------- Output Preprocessing ( Zone 0 ) --------------------

WARNING: SURFACE_PRESSURE_DROP can only be computed for at least 2 surfaces (outlet, inlet, ...)

  Info: Ignoring the following screen output fields:
  RMS_TKE, RMS_DISSIPATION
Screen output fields: INNER_ITER, RMS_DENSITY, LIFT, DRAG
History output group(s): ITER, RMS_RES
Convergence field(s): RMS_DENSITY
Warning: No (valid) fields chosen for time convergence monitoring. Time convergence monitoring inactive.
Volume output fields: COORDINATES, SOLUTION, PRIMITIVE

------------------- Geometry Preprocessing ( Zone 0 ) -------------------
Two dimensional problem.
11393 grid points before partitioning.
22183 volume elements before partitioning.
4 surface markers.
259 boundary elements in index 0 (Marker = WALL).
72 boundary elements in index 1 (Marker = INLET).
23 boundary elements in index 2 (Marker = OUTLET).
247 boundary elements in index 3 (Marker = SYMMETRY).
Executing the partitioning functions.
Building the graph adjacency structure.
Calling ParMETIS... graph partitioning complete (488 edge cuts).
Distributing ParMETIS coloring.
Rebalancing vertices.
Rebalancing volume element connectivity.
Rebalancing markers and surface elements.
11887 vertices including ghost points. 
22667 interior elements including halo cells. 
22667 triangles.
Establishing MPI communication patterns.
Setting point connectivity.
Renumbering points (Reverse Cuthill McKee Ordering).
Recomputing point connectivity.
Setting element connectivity.
Checking the numerical grid orientation.
There has been a re-orientation of 22667 TRIANGLE volume elements.
There has been a re-orientation of 336 LINE surface elements.
Identifying edges and vertices.
Setting the control volume structure.
Area of the computational grid: 0.00228399.
Searching for the closest normal neighbors to the surfaces.
Storing a mapping from global to local point index.
Compute the surface curvature.
Max K: 2872.98. Mean K: 42.3749. Standard deviation K: 325.392.
Checking for periodicity.
Computing mesh quality statistics for the dual control volumes.
+--------------------------------------------------------------+
|           Mesh Quality Metric|        Minimum|        Maximum|
+--------------------------------------------------------------+
|    Orthogonality Angle (deg.)|        64.2353|        89.5257|
|     CV Face Area Aspect Ratio|         1.0004|        5.76086|
|           CV Sub-Volume Ratio|              1|        2.87382|
+--------------------------------------------------------------+
Finding max control volume width.
Communicating number of neighbors.
Wetted area = 0 m.
Area projection in the x-plane = 0 m, y-plane = 0 m.
Max. coordinate in the x-direction = -1e+10 m, y-direction = -1e+10 m.
Min. coordinate in the x-direction = 1e+10 m, y-direction = 1e+10 m.
Checking if Euler & Symmetry markers are straight/plane:
Boundary marker WALL is NOT a single straight.
Boundary marker SYMMETRY is a single straight.
Computing wall distances.

-------------------- Solver Preprocessing ( Zone 0 ) --------------------
Inviscid flow: Computing density based on free-stream
temperature and pressure using the ideal gas law.
Force coefficients computed using free-stream values.

-- Models:
+------------------------------------------------------------------------------+
|          Viscosity Model|        Conductivity Model|              Fluid Model|
+------------------------------------------------------------------------------+
|                        -|                         -|                IDEAL_GAS|
+------------------------------------------------------------------------------+
-- Fluid properties:
+------------------------------------------------------------------------------+
|                  Name|    Dim. value|    Ref. value|      Unit|Non-dim. value|
+------------------------------------------------------------------------------+
|          Gas Constant|           297|             1|  N.m/kg.K|           297|
|      Spec. Heat Ratio|             -|             -|         -|           1.4|
+------------------------------------------------------------------------------+
-- Initial and free-stream conditions:
+------------------------------------------------------------------------------+
|                  Name|    Dim. value|    Ref. value|      Unit|Non-dim. value|
+------------------------------------------------------------------------------+
|       Static Pressure|        100000|             1|        Pa|        100000|
|               Density|       1.12233|             1|    kg/m^3|       1.12233|
|           Temperature|           300|             1|         K|           300|
|          Total Energy|        222750|             1|   m^2/s^2|        222750|
|            Velocity-X|   3.53186e-07|             1|       m/s|   3.53186e-07|
|            Velocity-Y|             0|             1|       m/s|             0|
|    Velocity Magnitude|   3.53186e-07|             1|       m/s|   3.53186e-07|
+------------------------------------------------------------------------------+
|           Mach Number|             -|             -|         -|         1e-09|
+------------------------------------------------------------------------------+
Initialize Jacobian structure (Euler). MG level: 0.

------------------- Numerics Preprocessing ( Zone 0 ) -------------------

----------------- Integration Preprocessing ( Zone 0 ) ------------------

------------------- Iteration Preprocessing ( Zone 0 ) ------------------
Euler/Navier-Stokes/RANS fluid iteration.

------------------------------ Begin Solver -----------------------------

Simulation Run using the Single-zone Driver
WARNING: SU2 was not compiled for an AVX-capable architecture. Performance could be better,
         see https://su2code.github.io/docs_v7/Build-SU2-Linux-MacOS/#compiler-optimizations
+---------------------------------------------------+
|  Inner_Iter|    rms[Rho]|          CL|          CD|
+---------------------------------------------------+
|           0|   -2.607316|    0.000000|    0.000000|
|           1|   -2.806939|    0.000000|    0.000000|
|           2|   -2.997127|    0.000000|    0.000000|
|           3|   -2.972961|    0.000000|    0.000000|
|           4|   -3.284991|    0.000000|    0.000000|
|           5|   -3.167265|    0.000000|    0.000000|
|           6|   -3.396563|    0.000000|    0.000000|
|           7|   -3.362491|    0.000000|    0.000000|
|           8|   -3.479679|    0.000000|    0.000000|
|           9|   -3.410714|    0.000000|    0.000000|
|          10|   -3.399768|    0.000000|    0.000000|
|          11|   -3.192711|    0.000000|    0.000000|
|          12|   -3.534982|    0.000000|    0.000000|
|          13|   -3.382222|    0.000000|    0.000000|
|          14|   -3.605278|    0.000000|    0.000000|
|          15|   -3.563081|    0.000000|    0.000000|
|          16|   -3.673665|    0.000000|    0.000000|
|          17|   -3.608702|    0.000000|    0.000000|
|          18|   -3.703134|    0.000000|    0.000000|
|          19|   -3.629052|    0.000000|    0.000000|
|          20|   -3.730862|    0.000000|    0.000000|
|          21|   -3.668544|    0.000000|    0.000000|
|          22|   -3.769298|    0.000000|    0.000000|
|          23|   -3.711790|    0.000000|    0.000000|
|          24|   -3.810568|    0.000000|    0.000000|
|          25|   -3.755336|    0.000000|    0.000000|
|          26|   -3.852874|    0.000000|    0.000000|
|          27|   -3.800983|    0.000000|    0.000000|
|          28|   -3.897188|    0.000000|    0.000000|
|          29|   -3.849074|    0.000000|    0.000000|
|          30|   -3.943724|    0.000000|    0.000000|
|          31|   -3.899141|    0.000000|    0.000000|
|          32|   -3.992136|    0.000000|    0.000000|
|          33|   -3.950525|    0.000000|    0.000000|
|          34|   -4.041493|    0.000000|    0.000000|
|          35|   -4.001379|    0.000000|    0.000000|
|          36|   -4.089863|    0.000000|    0.000000|
|          37|   -4.048530|    0.000000|    0.000000|
|          38|   -4.134254|    0.000000|    0.000000|
|          39|   -4.087820|    0.000000|    0.000000|
|          40|   -4.170345|    0.000000|    0.000000|
|          41|   -4.115126|    0.000000|    0.000000|
|          42|   -4.194287|    0.000000|    0.000000|
|          43|   -4.128238|    0.000000|    0.000000|
|          44|   -4.204373|    0.000000|    0.000000|
|          45|   -4.128017|    0.000000|    0.000000|
|          46|   -4.201707|    0.000000|    0.000000|
|          47|   -4.117805|    0.000000|    0.000000|
|          48|   -4.190144|    0.000000|    0.000000|
|          49|   -4.102169|    0.000000|    0.000000|
|          50|   -4.173648|    0.000000|    0.000000|
|          51|   -4.084736|    0.000000|    0.000000|
|          52|   -4.155504|    0.000000|    0.000000|
|          53|   -4.068075|    0.000000|    0.000000|
|          54|   -4.138034|    0.000000|    0.000000|
|          55|   -4.053097|    0.000000|    0.000000|
|          56|   -4.122502|    0.000000|    0.000000|
|          57|   -4.040048|    0.000000|    0.000000|
|          58|   -4.108692|    0.000000|    0.000000|
|          59|   -4.029197|    0.000000|    0.000000|
|          60|   -4.094719|    0.000000|    0.000000|
|          61|   -4.018834|    0.000000|    0.000000|
|          62|   -4.081556|    0.000000|    0.000000|
|          63|   -4.007023|    0.000000|    0.000000|
|          64|   -4.066889|    0.000000|    0.000000|
|          65|   -3.993851|    0.000000|    0.000000|
|          66|   -4.050812|    0.000000|    0.000000|
|          67|   -3.975850|    0.000000|    0.000000|
|          68|   -4.028353|    0.000000|    0.000000|
|          69|   -3.947441|    0.000000|    0.000000|
|          70|   -3.995864|    0.000000|    0.000000|
|          71|   -3.900775|    0.000000|    0.000000|
|          72|   -3.942338|    0.000000|    0.000000|
|          73|   -3.811350|    0.000000|    0.000000|
|          74|   -3.641340|    0.000000|    0.000000|
|          75|   -3.336918|    0.000000|    0.000000|
|          76|   -3.299475|    0.000000|    0.000000|
|          77|   -3.575684|    0.000000|    0.000000|
|          78|   -3.803773|    0.000000|    0.000000|
|          79|   -4.168896|    0.000000|    0.000000|
|          80|   -4.327101|    0.000000|    0.000000|
|          81|   -4.496421|    0.000000|    0.000000|
|          82|   -4.599741|    0.000000|    0.000000|
|          83|   -4.688393|    0.000000|    0.000000|
|          84|   -4.783886|    0.000000|    0.000000|
|          85|   -4.808668|    0.000000|    0.000000|
|          86|   -4.898966|    0.000000|    0.000000|
|          87|   -4.879269|    0.000000|    0.000000|
|          88|   -4.968359|    0.000000|    0.000000|
|          89|   -4.909608|    0.000000|    0.000000|
|          90|   -4.998396|    0.000000|    0.000000|
|          91|   -4.912631|    0.000000|    0.000000|
|          92|   -4.999277|    0.000000|    0.000000|
|          93|   -4.898957|    0.000000|    0.000000|
|          94|   -4.982461|    0.000000|    0.000000|
|          95|   -4.878202|    0.000000|    0.000000|
|          96|   -4.960017|    0.000000|    0.000000|
|          97|   -4.858499|    0.000000|    0.000000|
|          98|   -4.940129|    0.000000|    0.000000|
|          99|   -4.846206|    0.000000|    0.000000|
|         100|   -4.927114|    0.000000|    0.000000|
+-----------------------------------------------------------------------+
|        File Writing Summary       |              Filename             |
+-----------------------------------------------------------------------+
|SU2 binary restart                 |restart_flow.dat                   |
|Paraview                           |flow.vtu                           |
|Paraview surface                   |surface_flow.vtu                   |
+-----------------------------------------------------------------------+
+---------------------------------------------------+
|  Inner_Iter|    rms[Rho]|          CL|          CD|
+---------------------------------------------------+
|         101|   -4.841858|    0.000000|    0.000000|
|         102|   -4.921454|    0.000000|    0.000000|
|         103|   -4.844692|    0.000000|    0.000000|
|         104|   -4.923034|    0.000000|    0.000000|
|         105|   -4.854310|    0.000000|    0.000000|
|         106|   -4.931709|    0.000000|    0.000000|
|         107|   -4.870626|    0.000000|    0.000000|
|         108|   -4.947168|    0.000000|    0.000000|
|         109|   -4.893669|    0.000000|    0.000000|
|         110|   -4.969355|    0.000000|    0.000000|
|         111|   -4.922762|    0.000000|    0.000000|
|         112|   -4.997802|    0.000000|    0.000000|
|         113|   -4.957696|    0.000000|    0.000000|
|         114|   -5.032469|    0.000000|    0.000000|
|         115|   -4.998738|    0.000000|    0.000000|
|         116|   -5.073362|    0.000000|    0.000000|
|         117|   -5.045973|    0.000000|    0.000000|
|         118|   -5.120572|    0.000000|    0.000000|
|         119|   -5.099738|    0.000000|    0.000000|
|         120|   -5.174323|    0.000000|    0.000000|
|         121|   -5.160269|    0.000000|    0.000000|
|         122|   -5.234802|    0.000000|    0.000000|
|         123|   -5.227746|    0.000000|    0.000000|
|         124|   -5.302240|    0.000000|    0.000000|
|         125|   -5.302401|    0.000000|    0.000000|
|         126|   -5.376858|    0.000000|    0.000000|
|         127|   -5.383530|    0.000000|    0.000000|
|         128|   -5.458038|    0.000000|    0.000000|
|         129|   -5.468159|    0.000000|    0.000000|
|         130|   -5.543017|    0.000000|    0.000000|
|         131|   -5.548461|    0.000000|    0.000000|
|         132|   -5.624597|    0.000000|    0.000000|
|         133|   -5.610254|    0.000000|    0.000000|
|         134|   -5.689106|    0.000000|    0.000000|
|         135|   -5.638437|    0.000000|    0.000000|
|         136|   -5.720633|    0.000000|    0.000000|
|         137|   -5.631410|    0.000000|    0.000000|
|         138|   -5.716076|    0.000000|    0.000000|
|         139|   -5.603067|    0.000000|    0.000000|
|         140|   -5.688746|    0.000000|    0.000000|
|         141|   -5.568641|    0.000000|    0.000000|
|         142|   -5.654467|    0.000000|    0.000000|
|         143|   -5.537213|    0.000000|    0.000000|
|         144|   -5.622592|    0.000000|    0.000000|
|         145|   -5.512046|    0.000000|    0.000000|
|         146|   -5.596904|    0.000000|    0.000000|
|         147|   -5.494262|    0.000000|    0.000000|
|         148|   -5.578520|    0.000000|    0.000000|
|         149|   -5.483640|    0.000000|    0.000000|
|         150|   -5.567502|    0.000000|    0.000000|
|         151|   -5.479957|    0.000000|    0.000000|
|         152|   -5.563541|    0.000000|    0.000000|
|         153|   -5.482935|    0.000000|    0.000000|
|         154|   -5.566223|    0.000000|    0.000000|
|         155|   -5.492002|    0.000000|    0.000000|
|         156|   -5.575232|    0.000000|    0.000000|
|         157|   -5.507300|    0.000000|    0.000000|
|         158|   -5.590434|    0.000000|    0.000000|
|         159|   -5.528464|    0.000000|    0.000000|
|         160|   -5.611415|    0.000000|    0.000000|
|         161|   -5.555205|    0.000000|    0.000000|
|         162|   -5.638151|    0.000000|    0.000000|
|         163|   -5.587645|    0.000000|    0.000000|
|         164|   -5.670854|    0.000000|    0.000000|
|         165|   -5.626482|    0.000000|    0.000000|
|         166|   -5.709595|    0.000000|    0.000000|
|         167|   -5.671256|    0.000000|    0.000000|
|         168|   -5.754371|    0.000000|    0.000000|
|         169|   -5.722027|    0.000000|    0.000000|
|         170|   -5.805413|    0.000000|    0.000000|
|         171|   -5.779307|    0.000000|    0.000000|
|         172|   -5.862847|    0.000000|    0.000000|
|         173|   -5.843109|    0.000000|    0.000000|
|         174|   -5.926921|    0.000000|    0.000000|
|         175|   -5.913374|    0.000000|    0.000000|
|         176|   -5.997978|    0.000000|    0.000000|
|         177|   -5.989612|    0.000000|    0.000000|
|         178|   -6.074499|    0.000000|    0.000000|
|         179|   -6.068686|    0.000000|    0.000000|
|         180|   -6.154117|    0.000000|    0.000000|
|         181|   -6.145064|    0.000000|    0.000000|
|         182|   -6.230562|    0.000000|    0.000000|
|         183|   -6.204981|    0.000000|    0.000000|
|         184|   -6.291317|    0.000000|    0.000000|
|         185|   -6.243589|    0.000000|    0.000000|
|         186|   -6.329213|    0.000000|    0.000000|
|         187|   -6.252733|    0.000000|    0.000000|
|         188|   -6.333059|    0.000000|    0.000000|
|         189|   -6.234893|    0.000000|    0.000000|
|         190|   -6.314520|    0.000000|    0.000000|
|         191|   -6.212608|    0.000000|    0.000000|
|         192|   -6.290833|    0.000000|    0.000000|
|         193|   -6.190791|    0.000000|    0.000000|
|         194|   -6.266164|    0.000000|    0.000000|
|         195|   -6.170765|    0.000000|    0.000000|
|         196|   -6.245475|    0.000000|    0.000000|
|         197|   -6.158217|    0.000000|    0.000000|
|         198|   -6.232081|    0.000000|    0.000000|
|         199|   -6.152184|    0.000000|    0.000000|
|         200|   -6.225285|    0.000000|    0.000000|
+-----------------------------------------------------------------------+
|        File Writing Summary       |              Filename             |
+-----------------------------------------------------------------------+
|SU2 binary restart                 |restart_flow.dat                   |
|Paraview                           |flow.vtu                           |
|Paraview surface                   |surface_flow.vtu                   |
+-----------------------------------------------------------------------+
+---------------------------------------------------+
|  Inner_Iter|    rms[Rho]|          CL|          CD|
+---------------------------------------------------+
|         201|   -6.152811|    0.000000|    0.000000|
|         202|   -6.224985|    0.000000|    0.000000|
|         203|   -6.159291|    0.000000|    0.000000|
|         204|   -6.231266|    0.000000|    0.000000|
|         205|   -6.172808|    0.000000|    0.000000|
|         206|   -6.244289|    0.000000|    0.000000|
|         207|   -6.192557|    0.000000|    0.000000|
|         208|   -6.263138|    0.000000|    0.000000|
|         209|   -6.216884|    0.000000|    0.000000|
|         210|   -6.287804|    0.000000|    0.000000|
|         211|   -6.248921|    0.000000|    0.000000|
|         212|   -6.319482|    0.000000|    0.000000|
|         213|   -6.287699|    0.000000|    0.000000|
|         214|   -6.357154|    0.000000|    0.000000|
|         215|   -6.333390|    0.000000|    0.000000|
|         216|   -6.401429|    0.000000|    0.000000|
|         217|   -6.385181|    0.000000|    0.000000|
|         218|   -6.451953|    0.000000|    0.000000|
|         219|   -6.443674|    0.000000|    0.000000|
|         220|   -6.509091|    0.000000|    0.000000|
|         221|   -6.508710|    0.000000|    0.000000|
|         222|   -6.573278|    0.000000|    0.000000|
|         223|   -6.580970|    0.000000|    0.000000|
|         224|   -6.644475|    0.000000|    0.000000|
|         225|   -6.658110|    0.000000|    0.000000|
|         226|   -6.720890|    0.000000|    0.000000|
|         227|   -6.733146|    0.000000|    0.000000|
|         228|   -6.797321|    0.000000|    0.000000|
|         229|   -6.796772|    0.000000|    0.000000|
|         230|   -6.865753|    0.000000|    0.000000|
|         231|   -6.836331|    0.000000|    0.000000|
|         232|   -6.913338|    0.000000|    0.000000|
|         233|   -6.843225|    0.000000|    0.000000|
|         234|   -6.929302|    0.000000|    0.000000|
|         235|   -6.825160|    0.000000|    0.000000|
|         236|   -6.918020|    0.000000|    0.000000|
|         237|   -6.794934|    0.000000|    0.000000|
|         238|   -6.891889|    0.000000|    0.000000|
|         239|   -6.764067|    0.000000|    0.000000|
|         240|   -6.862261|    0.000000|    0.000000|
|         241|   -6.737028|    0.000000|    0.000000|
|         242|   -6.834775|    0.000000|    0.000000|
|         243|   -6.716128|    0.000000|    0.000000|
|         244|   -6.812734|    0.000000|    0.000000|
|         245|   -6.701955|    0.000000|    0.000000|
|         246|   -6.796880|    0.000000|    0.000000|
|         247|   -6.694103|    0.000000|    0.000000|
|         248|   -6.788178|    0.000000|    0.000000|
|         249|   -6.692348|    0.000000|    0.000000|
|         250|   -6.786209|    0.000000|    0.000000|
|         251|   -6.696657|    0.000000|    0.000000|
|         252|   -6.790307|    0.000000|    0.000000|
|         253|   -6.706599|    0.000000|    0.000000|
|         254|   -6.799798|    0.000000|    0.000000|
|         255|   -6.721818|    0.000000|    0.000000|
|         256|   -6.814772|    0.000000|    0.000000|
|         257|   -6.742485|    0.000000|    0.000000|
|         258|   -6.835236|    0.000000|    0.000000|
|         259|   -6.768040|    0.000000|    0.000000|
|         260|   -6.860969|    0.000000|    0.000000|
|         261|   -6.798773|    0.000000|    0.000000|
|         262|   -6.892243|    0.000000|    0.000000|
|         263|   -6.834664|    0.000000|    0.000000|
|         264|   -6.927921|    0.000000|    0.000000|
|         265|   -6.875874|    0.000000|    0.000000|
|         266|   -6.969117|    0.000000|    0.000000|
|         267|   -6.922902|    0.000000|    0.000000|
|         268|   -7.015644|    0.000000|    0.000000|
|         269|   -6.974278|    0.000000|    0.000000|
|         270|   -7.066493|    0.000000|    0.000000|
|         271|   -7.030095|    0.000000|    0.000000|
|         272|   -7.122077|    0.000000|    0.000000|
|         273|   -7.092466|    0.000000|    0.000000|
|         274|   -7.182086|    0.000000|    0.000000|
|         275|   -7.158195|    0.000000|    0.000000|
|         276|   -7.243970|    0.000000|    0.000000|
|         277|   -7.226185|    0.000000|    0.000000|
|         278|   -7.307897|    0.000000|    0.000000|
|         279|   -7.292532|    0.000000|    0.000000|
|         280|   -7.366792|    0.000000|    0.000000|
|         281|   -7.360887|    0.000000|    0.000000|
|         282|   -7.422327|    0.000000|    0.000000|
|         283|   -7.394771|    0.000000|    0.000000|
|         284|   -7.450745|    0.000000|    0.000000|
|         285|   -7.442426|    0.000000|    0.000000|
|         286|   -7.487955|    0.000000|    0.000000|
|         287|   -7.473408|    0.000000|    0.000000|
|         288|   -7.496303|    0.000000|    0.000000|
|         289|   -7.477235|    0.000000|    0.000000|
|         290|   -7.496641|    0.000000|    0.000000|
|         291|   -7.471851|    0.000000|    0.000000|
|         292|   -7.490113|    0.000000|    0.000000|
|         293|   -7.463640|    0.000000|    0.000000|
|         294|   -7.483103|    0.000000|    0.000000|
|         295|   -7.456017|    0.000000|    0.000000|
|         296|   -7.478374|    0.000000|    0.000000|
|         297|   -7.453981|    0.000000|    0.000000|
|         298|   -7.478369|    0.000000|    0.000000|
|         299|   -7.458844|    0.000000|    0.000000|
|         300|   -7.483024|    0.000000|    0.000000|
+-----------------------------------------------------------------------+
|        File Writing Summary       |              Filename             |
+-----------------------------------------------------------------------+
|SU2 binary restart                 |restart_flow.dat                   |
|Paraview                           |flow.vtu                           |
|Paraview surface                   |surface_flow.vtu                   |
+-----------------------------------------------------------------------+
+---------------------------------------------------+
|  Inner_Iter|    rms[Rho]|          CL|          CD|
+---------------------------------------------------+
|         301|   -7.468421|    0.000000|    0.000000|
|         302|   -7.492707|    0.000000|    0.000000|
|         303|   -7.484137|    0.000000|    0.000000|
|         304|   -7.507582|    0.000000|    0.000000|
|         305|   -7.504114|    0.000000|    0.000000|
|         306|   -7.526749|    0.000000|    0.000000|
|         307|   -7.530692|    0.000000|    0.000000|
|         308|   -7.551015|    0.000000|    0.000000|
|         309|   -7.562005|    0.000000|    0.000000|
|         310|   -7.580675|    0.000000|    0.000000|
|         311|   -7.599527|    0.000000|    0.000000|
|         312|   -7.615492|    0.000000|    0.000000|
|         313|   -7.642048|    0.000000|    0.000000|
|         314|   -7.654239|    0.000000|    0.000000|
|         315|   -7.688659|    0.000000|    0.000000|
|         316|   -7.696689|    0.000000|    0.000000|
|         317|   -7.737907|    0.000000|    0.000000|
|         318|   -7.741780|    0.000000|    0.000000|
|         319|   -7.787217|    0.000000|    0.000000|
|         320|   -7.787866|    0.000000|    0.000000|
|         321|   -7.831950|    0.000000|    0.000000|
|         322|   -7.831768|    0.000000|    0.000000|
|         323|   -7.865926|    0.000000|    0.000000|
|         324|   -7.869367|    0.000000|    0.000000|
|         325|   -7.886714|    0.000000|    0.000000|
|         326|   -7.900231|    0.000000|    0.000000|
|         327|   -7.895279|    0.000000|    0.000000|
|         328|   -7.922450|    0.000000|    0.000000|
|         329|   -7.890841|    0.000000|    0.000000|
|         330|   -7.932610|    0.000000|    0.000000|
|         331|   -7.876045|    0.000000|    0.000000|
|         332|   -7.930870|    0.000000|    0.000000|
|         333|   -7.856759|    0.000000|    0.000000|
|         334|   -7.923629|    0.000000|    0.000000|
|         335|   -7.840021|    0.000000|    0.000000|
|         336|   -7.915173|    0.000000|    0.000000|
|         337|   -7.825174|    0.000000|    0.000000|
|         338|   -7.906179|    0.000000|    0.000000|
|         339|   -7.813450|    0.000000|    0.000000|
|         340|   -7.898347|    0.000000|    0.000000|
|         341|   -7.805488|    0.000000|    0.000000|
|         342|   -7.892769|    0.000000|    0.000000|
|         343|   -7.801552|    0.000000|    0.000000|
|         344|   -7.890407|    0.000000|    0.000000|
|         345|   -7.801780|    0.000000|    0.000000|
|         346|   -7.891502|    0.000000|    0.000000|
|         347|   -7.806096|    0.000000|    0.000000|
|         348|   -7.896302|    0.000000|    0.000000|
|         349|   -7.814408|    0.000000|    0.000000|
|         350|   -7.904787|    0.000000|    0.000000|
|         351|   -7.826604|    0.000000|    0.000000|
|         352|   -7.916900|    0.000000|    0.000000|
|         353|   -7.842399|    0.000000|    0.000000|
|         354|   -7.932416|    0.000000|    0.000000|
|         355|   -7.861595|    0.000000|    0.000000|
|         356|   -7.951265|    0.000000|    0.000000|
|         357|   -7.884137|    0.000000|    0.000000|
|         358|   -7.973371|    0.000000|    0.000000|
|         359|   -7.910043|    0.000000|    0.000000|
|         360|   -7.998645|    0.000000|    0.000000|
|         361|   -7.939582|    0.000000|    0.000000|
|         362|   -8.027130|    0.000000|    0.000000|
|         363|   -7.972729|    0.000000|    0.000000|
|         364|   -8.058491|    0.000000|    0.000000|
|         365|   -8.008895|    0.000000|    0.000000|
|         366|   -8.092215|    0.000000|    0.000000|
|         367|   -8.047418|    0.000000|    0.000000|
|         368|   -8.127761|    0.000000|    0.000000|
|         369|   -8.087963|    0.000000|    0.000000|
|         370|   -8.164748|    0.000000|    0.000000|
|         371|   -8.130386|    0.000000|    0.000000|
|         372|   -8.202750|    0.000000|    0.000000|
|         373|   -8.174088|    0.000000|    0.000000|
|         374|   -8.241120|    0.000000|    0.000000|
|         375|   -8.218727|    0.000000|    0.000000|
|         376|   -8.279359|    0.000000|    0.000000|
|         377|   -8.263369|    0.000000|    0.000000|
|         378|   -8.316341|    0.000000|    0.000000|
|         379|   -8.306902|    0.000000|    0.000000|
|         380|   -8.351208|    0.000000|    0.000000|
|         381|   -8.348367|    0.000000|    0.000000|
|         382|   -8.383282|    0.000000|    0.000000|
|         383|   -8.386867|    0.000000|    0.000000|
|         384|   -8.412264|    0.000000|    0.000000|
|         385|   -8.421833|    0.000000|    0.000000|
|         386|   -8.438128|    0.000000|    0.000000|
|         387|   -8.452990|    0.000000|    0.000000|
|         388|   -8.461127|    0.000000|    0.000000|
|         389|   -8.480547|    0.000000|    0.000000|
|         390|   -8.481806|    0.000000|    0.000000|
|         391|   -8.505118|    0.000000|    0.000000|
|         392|   -8.500903|    0.000000|    0.000000|
|         393|   -8.527537|    0.000000|    0.000000|
|         394|   -8.519152|    0.000000|    0.000000|
|         395|   -8.548756|    0.000000|    0.000000|
|         396|   -8.537356|    0.000000|    0.000000|
|         397|   -8.569826|    0.000000|    0.000000|
|         398|   -8.556165|    0.000000|    0.000000|
|         399|   -8.591271|    0.000000|    0.000000|
|         400|   -8.575941|    0.000000|    0.000000|
+-----------------------------------------------------------------------+
|        File Writing Summary       |              Filename             |
+-----------------------------------------------------------------------+
|SU2 binary restart                 |restart_flow.dat                   |
|Paraview                           |flow.vtu                           |
|Paraview surface                   |surface_flow.vtu                   |
+-----------------------------------------------------------------------+
+---------------------------------------------------+
|  Inner_Iter|    rms[Rho]|          CL|          CD|
+---------------------------------------------------+
|         401|   -8.613630|    0.000000|    0.000000|
|         402|   -8.597060|    0.000000|    0.000000|
|         403|   -8.637258|    0.000000|    0.000000|
|         404|   -8.619727|    0.000000|    0.000000|
|         405|   -8.662238|    0.000000|    0.000000|
|         406|   -8.643966|    0.000000|    0.000000|
|         407|   -8.688407|    0.000000|    0.000000|
|         408|   -8.669669|    0.000000|    0.000000|
|         409|   -8.715389|    0.000000|    0.000000|
|         410|   -8.696597|    0.000000|    0.000000|
|         411|   -8.742602|    0.000000|    0.000000|
|         412|   -8.724377|    0.000000|    0.000000|
|         413|   -8.769275|    0.000000|    0.000000|
|         414|   -8.752500|    0.000000|    0.000000|
|         415|   -8.794516|    0.000000|    0.000000|
|         416|   -8.780338|    0.000000|    0.000000|
|         417|   -8.817348|    0.000000|    0.000000|
|         418|   -8.807190|    0.000000|    0.000000|
|         419|   -8.836925|    0.000000|    0.000000|
|         420|   -8.832353|    0.000000|    0.000000|
|         421|   -8.852715|    0.000000|    0.000000|
|         422|   -8.855210|    0.000000|    0.000000|
|         423|   -8.864619|    0.000000|    0.000000|
|         424|   -8.875349|    0.000000|    0.000000|
|         425|   -8.872994|    0.000000|    0.000000|
|         426|   -8.892579|    0.000000|    0.000000|
|         427|   -8.878483|    0.000000|    0.000000|
|         428|   -8.906994|    0.000000|    0.000000|
|         429|   -8.882049|    0.000000|    0.000000|
|         430|   -8.919064|    0.000000|    0.000000|
|         431|   -8.884676|    0.000000|    0.000000|
|         432|   -8.929366|    0.000000|    0.000000|
|         433|   -8.887196|    0.000000|    0.000000|
|         434|   -8.938546|    0.000000|    0.000000|
|         435|   -8.890332|    0.000000|    0.000000|
|         436|   -8.947283|    0.000000|    0.000000|
|         437|   -8.894663|    0.000000|    0.000000|
|         438|   -8.956203|    0.000000|    0.000000|
|         439|   -8.900625|    0.000000|    0.000000|
|         440|   -8.965841|    0.000000|    0.000000|
|         441|   -8.908536|    0.000000|    0.000000|
|         442|   -8.976632|    0.000000|    0.000000|
|         443|   -8.918614|    0.000000|    0.000000|
|         444|   -8.988905|    0.000000|    0.000000|
|         445|   -8.930991|    0.000000|    0.000000|
|         446|   -9.002899|    0.000000|    0.000000|
|         447|   -8.945746|    0.000000|    0.000000|
|         448|   -9.018775|    0.000000|    0.000000|
|         449|   -8.962911|    0.000000|    0.000000|
|         450|   -9.036632|    0.000000|    0.000000|
|         451|   -8.982481|    0.000000|    0.000000|
|         452|   -9.056514|    0.000000|    0.000000|
|         453|   -9.004424|    0.000000|    0.000000|
|         454|   -9.078422|    0.000000|    0.000000|
|         455|   -9.028682|    0.000000|    0.000000|
|         456|   -9.102316|    0.000000|    0.000000|
|         457|   -9.055169|    0.000000|    0.000000|
|         458|   -9.128116|    0.000000|    0.000000|
|         459|   -9.083766|    0.000000|    0.000000|
|         460|   -9.071137|    0.000000|    0.000000|
|         461|   -8.944971|    0.000000|    0.000000|
|         462|   -9.139407|    0.000000|    0.000000|
|         463|   -9.125544|    0.000000|    0.000000|
|         464|   -9.226084|    0.000000|    0.000000|
|         465|   -9.236197|    0.000000|    0.000000|
|         466|   -9.298069|    0.000000|    0.000000|
|         467|   -9.283022|    0.000000|    0.000000|
|         468|   -9.334750|    0.000000|    0.000000|
|         469|   -9.309124|    0.000000|    0.000000|
|         470|   -9.359772|    0.000000|    0.000000|
|         471|   -9.340863|    0.000000|    0.000000|
|         472|   -9.388920|    0.000000|    0.000000|
|         473|   -9.374428|    0.000000|    0.000000|
|         474|   -9.418677|    0.000000|    0.000000|
|         475|   -9.406928|    0.000000|    0.000000|
|         476|   -9.447353|    0.000000|    0.000000|
|         477|   -9.438581|    0.000000|    0.000000|
|         478|   -9.475221|    0.000000|    0.000000|
|         479|   -9.469315|    0.000000|    0.000000|
|         480|   -9.502294|    0.000000|    0.000000|
|         481|   -9.498789|    0.000000|    0.000000|
|         482|   -9.528502|    0.000000|    0.000000|
|         483|   -9.526991|    0.000000|    0.000000|
|         484|   -9.553994|    0.000000|    0.000000|
|         485|   -9.554172|    0.000000|    0.000000|
|         486|   -9.579051|    0.000000|    0.000000|
|         487|   -9.580639|    0.000000|    0.000000|
|         488|   -9.603956|    0.000000|    0.000000|
|         489|   -9.606642|    0.000000|    0.000000|
|         490|   -9.628928|    0.000000|    0.000000|
|         491|   -9.632353|    0.000000|    0.000000|
|         492|   -9.654111|    0.000000|    0.000000|
|         493|   -9.657916|    0.000000|    0.000000|
|         494|   -9.679601|    0.000000|    0.000000|
|         495|   -9.683475|    0.000000|    0.000000|
|         496|   -9.705457|    0.000000|    0.000000|
|         497|   -9.709113|    0.000000|    0.000000|
|         498|   -9.731682|    0.000000|    0.000000|
|         499|   -9.734788|    0.000000|    0.000000|
|         500|   -9.758195|    0.000000|    0.000000|
+-----------------------------------------------------------------------+
|        File Writing Summary       |              Filename             |
+-----------------------------------------------------------------------+
|SU2 binary restart                 |restart_flow.dat                   |
|Paraview                           |flow.vtu                           |
|Paraview surface                   |surface_flow.vtu                   |
+-----------------------------------------------------------------------+
+---------------------------------------------------+
|  Inner_Iter|    rms[Rho]|          CL|          CD|
+---------------------------------------------------+
|         501|   -9.760319|    0.000000|    0.000000|
|         502|   -9.784839|    0.000000|    0.000000|
|         503|   -9.785474|    0.000000|    0.000000|
|         504|   -9.811424|    0.000000|    0.000000|
|         505|   -9.810058|    0.000000|    0.000000|
|         506|   -9.837766|    0.000000|    0.000000|
|         507|   -9.833957|    0.000000|    0.000000|
|         508|   -9.863702|    0.000000|    0.000000|
|         509|   -9.857102|    0.000000|    0.000000|
|         510|   -9.889076|    0.000000|    0.000000|
|         511|   -9.879413|    0.000000|    0.000000|
|         512|   -9.913714|    0.000000|    0.000000|
|         513|   -9.900771|    0.000000|    0.000000|
|         514|   -9.937425|    0.000000|    0.000000|
|         515|   -9.921039|    0.000000|    0.000000|
|         516|   -9.960025|    0.000000|    0.000000|
|         517|   -9.940113|    0.000000|    0.000000|
|         518|   -9.981375|    0.000000|    0.000000|
|         519|   -9.957968|    0.000000|    0.000000|
|         520|  -10.001415|    0.000000|    0.000000|
|         521|   -9.974680|    0.000000|    0.000000|
|         522|  -10.020176|    0.000000|    0.000000|
|         523|   -9.990415|    0.000000|    0.000000|
|         524|  -10.037777|    0.000000|    0.000000|
|         525|  -10.005398|    0.000000|    0.000000|
|         526|  -10.054396|    0.000000|    0.000000|
|         527|  -10.019885|    0.000000|    0.000000|
|         528|  -10.070248|    0.000000|    0.000000|
|         529|  -10.034131|    0.000000|    0.000000|
|         530|  -10.085555|    0.000000|    0.000000|
|         531|  -10.048360|    0.000000|    0.000000|
|         532|  -10.100524|    0.000000|    0.000000|
|         533|  -10.062739|    0.000000|    0.000000|
|         534|  -10.115325|    0.000000|    0.000000|
|         535|  -10.077361|    0.000000|    0.000000|
|         536|  -10.130071|    0.000000|    0.000000|
|         537|  -10.092243|    0.000000|    0.000000|
|         538|  -10.144813|    0.000000|    0.000000|
|         539|  -10.107331|    0.000000|    0.000000|
|         540|  -10.159551|    0.000000|    0.000000|
|         541|  -10.122526|    0.000000|    0.000000|
|         542|  -10.174240|    0.000000|    0.000000|
|         543|  -10.137699|    0.000000|    0.000000|
|         544|  -10.188805|    0.000000|    0.000000|
|         545|  -10.152708|    0.000000|    0.000000|
|         546|  -10.203154|    0.000000|    0.000000|
|         547|  -10.167407|    0.000000|    0.000000|
|         548|  -10.217181|    0.000000|    0.000000|
|         549|  -10.181653|    0.000000|    0.000000|
|         550|  -10.230775|    0.000000|    0.000000|
|         551|  -10.195306|    0.000000|    0.000000|
|         552|  -10.243821|    0.000000|    0.000000|
|         553|  -10.208233|    0.000000|    0.000000|
|         554|  -10.256210|    0.000000|    0.000000|
|         555|  -10.220311|    0.000000|    0.000000|
|         556|  -10.267844|    0.000000|    0.000000|
|         557|  -10.231442|    0.000000|    0.000000|
|         558|  -10.278646|    0.000000|    0.000000|
|         559|  -10.241565|    0.000000|    0.000000|
|         560|  -10.288573|    0.000000|    0.000000|
|         561|  -10.250670|    0.000000|    0.000000|
|         562|  -10.297624|    0.000000|    0.000000|
|         563|  -10.258806|    0.000000|    0.000000|
|         564|  -10.305841|    0.000000|    0.000000|
|         565|  -10.266079|    0.000000|    0.000000|
|         566|  -10.313306|    0.000000|    0.000000|
|         567|  -10.272637|    0.000000|    0.000000|
|         568|  -10.320133|    0.000000|    0.000000|
|         569|  -10.278652|    0.000000|    0.000000|
|         570|  -10.326456|    0.000000|    0.000000|
|         571|  -10.284303|    0.000000|    0.000000|
|         572|  -10.332414|    0.000000|    0.000000|
|         573|  -10.289758|    0.000000|    0.000000|
|         574|  -10.338141|    0.000000|    0.000000|
|         575|  -10.295165|    0.000000|    0.000000|
|         576|  -10.343757|    0.000000|    0.000000|
|         577|  -10.300647|    0.000000|    0.000000|
|         578|  -10.349364|    0.000000|    0.000000|
|         579|  -10.306298|    0.000000|    0.000000|
|         580|  -10.355048|    0.000000|    0.000000|
|         581|  -10.312191|    0.000000|    0.000000|
|         582|  -10.360873|    0.000000|    0.000000|
|         583|  -10.318381|    0.000000|    0.000000|
|         584|  -10.366889|    0.000000|    0.000000|
|         585|  -10.324904|    0.000000|    0.000000|
|         586|  -10.373132|    0.000000|    0.000000|
|         587|  -10.331781|    0.000000|    0.000000|
|         588|  -10.379622|    0.000000|    0.000000|
|         589|  -10.339020|    0.000000|    0.000000|
|         590|  -10.386369|    0.000000|    0.000000|
|         591|  -10.346616|    0.000000|    0.000000|
|         592|  -10.393368|    0.000000|    0.000000|
|         593|  -10.354549|    0.000000|    0.000000|
|         594|  -10.400607|    0.000000|    0.000000|
|         595|  -10.362793|    0.000000|    0.000000|
|         596|  -10.408066|    0.000000|    0.000000|
|         597|  -10.371310|    0.000000|    0.000000|
|         598|  -10.415718|    0.000000|    0.000000|
|         599|  -10.380057|    0.000000|    0.000000|
|         600|  -10.423534|    0.000000|    0.000000|
+-----------------------------------------------------------------------+
|        File Writing Summary       |              Filename             |
+-----------------------------------------------------------------------+
|SU2 binary restart                 |restart_flow.dat                   |
|Paraview                           |flow.vtu                           |
|Paraview surface                   |surface_flow.vtu                   |
+-----------------------------------------------------------------------+
+---------------------------------------------------+
|  Inner_Iter|    rms[Rho]|          CL|          CD|
+---------------------------------------------------+
|         601|  -10.388988|    0.000000|    0.000000|
|         602|  -10.431484|    0.000000|    0.000000|
|         603|  -10.398063|    0.000000|    0.000000|
|         604|  -10.439541|    0.000000|    0.000000|
|         605|  -10.407239|    0.000000|    0.000000|
|         606|  -10.447683|    0.000000|    0.000000|
|         607|  -10.416484|    0.000000|    0.000000|
|         608|  -10.455887|    0.000000|    0.000000|
|         609|  -10.425765|    0.000000|    0.000000|
|         610|  -10.464136|    0.000000|    0.000000|
|         611|  -10.435054|    0.000000|    0.000000|
|         612|  -10.472414|    0.000000|    0.000000|
|         613|  -10.444329|    0.000000|    0.000000|
|         614|  -10.480709|    0.000000|    0.000000|
|         615|  -10.453569|    0.000000|    0.000000|
|         616|  -10.489014|    0.000000|    0.000000|
|         617|  -10.462760|    0.000000|    0.000000|
|         618|  -10.497322|    0.000000|    0.000000|
|         619|  -10.471890|    0.000000|    0.000000|
|         620|  -10.505630|    0.000000|    0.000000|
|         621|  -10.480952|    0.000000|    0.000000|
|         622|  -10.513939|    0.000000|    0.000000|
|         623|  -10.489940|    0.000000|    0.000000|
|         624|  -10.522249|    0.000000|    0.000000|
|         625|  -10.498854|    0.000000|    0.000000|
|         626|  -10.530564|    0.000000|    0.000000|
|         627|  -10.507698|    0.000000|    0.000000|
|         628|  -10.538887|    0.000000|    0.000000|
|         629|  -10.516476|    0.000000|    0.000000|
|         630|  -10.547226|    0.000000|    0.000000|
|         631|  -10.525194|    0.000000|    0.000000|
|         632|  -10.555585|    0.000000|    0.000000|
|         633|  -10.533863|    0.000000|    0.000000|
|         634|  -10.563969|    0.000000|    0.000000|
|         635|  -10.542489|    0.000000|    0.000000|
|         636|  -10.572386|    0.000000|    0.000000|
|         637|  -10.551084|    0.000000|    0.000000|
|         638|  -10.580840|    0.000000|    0.000000|
|         639|  -10.559657|    0.000000|    0.000000|
|         640|  -10.589336|    0.000000|    0.000000|
|         641|  -10.568218|    0.000000|    0.000000|
|         642|  -10.597879|    0.000000|    0.000000|
|         643|  -10.576778|    0.000000|    0.000000|
|         644|  -10.606475|    0.000000|    0.000000|
|         645|  -10.585350|    0.000000|    0.000000|
|         646|  -10.615129|    0.000000|    0.000000|
|         647|  -10.593944|    0.000000|    0.000000|
|         648|  -10.623846|    0.000000|    0.000000|
|         649|  -10.602574|    0.000000|    0.000000|
|         650|  -10.632633|    0.000000|    0.000000|
|         651|  -10.611253|    0.000000|    0.000000|
|         652|  -10.641494|    0.000000|    0.000000|
|         653|  -10.619992|    0.000000|    0.000000|
|         654|  -10.650437|    0.000000|    0.000000|
|         655|  -10.628806|    0.000000|    0.000000|
|         656|  -10.659467|    0.000000|    0.000000|
|         657|  -10.637706|    0.000000|    0.000000|
|         658|  -10.668590|    0.000000|    0.000000|
|         659|  -10.646705|    0.000000|    0.000000|
|         660|  -10.677813|    0.000000|    0.000000|
|         661|  -10.655814|    0.000000|    0.000000|
|         662|  -10.687141|    0.000000|    0.000000|
|         663|  -10.665043|    0.000000|    0.000000|
|         664|  -10.696581|    0.000000|    0.000000|
|         665|  -10.674402|    0.000000|    0.000000|
|         666|  -10.706137|    0.000000|    0.000000|
|         667|  -10.683899|    0.000000|    0.000000|
|         668|  -10.715815|    0.000000|    0.000000|
|         669|  -10.693544|    0.000000|    0.000000|
|         670|  -10.725619|    0.000000|    0.000000|
|         671|  -10.703341|    0.000000|    0.000000|
|         672|  -10.735553|    0.000000|    0.000000|
|         673|  -10.713295|    0.000000|    0.000000|
|         674|  -10.745619|    0.000000|    0.000000|
|         675|  -10.723412|    0.000000|    0.000000|
|         676|  -10.755820|    0.000000|    0.000000|
|         677|  -10.733693|    0.000000|    0.000000|
|         678|  -10.766158|    0.000000|    0.000000|
|         679|  -10.744138|    0.000000|    0.000000|
|         680|  -10.776633|    0.000000|    0.000000|
|         681|  -10.754748|    0.000000|    0.000000|
|         682|  -10.787245|    0.000000|    0.000000|
|         683|  -10.765521|    0.000000|    0.000000|
|         684|  -10.797992|    0.000000|    0.000000|
|         685|  -10.776454|    0.000000|    0.000000|
|         686|  -10.808874|    0.000000|    0.000000|
|         687|  -10.787544|    0.000000|    0.000000|
|         688|  -10.819887|    0.000000|    0.000000|
|         689|  -10.798785|    0.000000|    0.000000|
|         690|  -10.831028|    0.000000|    0.000000|
|         691|  -10.810172|    0.000000|    0.000000|
|         692|  -10.842295|    0.000000|    0.000000|
|         693|  -10.821699|    0.000000|    0.000000|
|         694|  -10.853683|    0.000000|    0.000000|
|         695|  -10.833359|    0.000000|    0.000000|
|         696|  -10.865188|    0.000000|    0.000000|
|         697|  -10.845145|    0.000000|    0.000000|
|         698|  -10.876805|    0.000000|    0.000000|
|         699|  -10.857050|    0.000000|    0.000000|
|         700|  -10.888530|    0.000000|    0.000000|
+-----------------------------------------------------------------------+
|        File Writing Summary       |              Filename             |
+-----------------------------------------------------------------------+
|SU2 binary restart                 |restart_flow.dat                   |
|Paraview                           |flow.vtu                           |
|Paraview surface                   |surface_flow.vtu                   |
+-----------------------------------------------------------------------+
+---------------------------------------------------+
|  Inner_Iter|    rms[Rho]|          CL|          CD|
+---------------------------------------------------+
|         701|  -10.869066|    0.000000|    0.000000|
|         702|  -10.900358|    0.000000|    0.000000|
|         703|  -10.881186|    0.000000|    0.000000|
|         704|  -10.912284|    0.000000|    0.000000|
|         705|  -10.893403|    0.000000|    0.000000|
|         706|  -10.924304|    0.000000|    0.000000|
|         707|  -10.905709|    0.000000|    0.000000|
|         708|  -10.936412|    0.000000|    0.000000|
|         709|  -10.918097|    0.000000|    0.000000|
|         710|  -10.948606|    0.000000|    0.000000|
|         711|  -10.930562|    0.000000|    0.000000|
|         712|  -10.960880|    0.000000|    0.000000|
|         713|  -10.943097|    0.000000|    0.000000|
|         714|  -10.973230|    0.000000|    0.000000|
|         715|  -10.955696|    0.000000|    0.000000|
|         716|  -10.985654|    0.000000|    0.000000|
|         717|  -10.968355|    0.000000|    0.000000|
|         718|  -10.998147|    0.000000|    0.000000|
|         719|  -10.981070|    0.000000|    0.000000|
|         720|  -11.010708|    0.000000|    0.000000|

----------------------------- Solver Exit -------------------------------
All convergence criteria satisfied.
+-----------------------------------------------------------------------+
|      Convergence Field     |     Value    |   Criterion  |  Converged |
+-----------------------------------------------------------------------+
|                    rms[Rho]|      -11.0107|         < -11|         Yes|
+-----------------------------------------------------------------------+
-------------------------------------------------------------------------
+-----------------------------------------------------------------------+
|        File Writing Summary       |              Filename             |
+-----------------------------------------------------------------------+
|SU2 binary restart                 |restart_flow.dat                   |
|Paraview                           |flow.vtu                           |
|Paraview surface                   |surface_flow.vtu                   |
+-----------------------------------------------------------------------+

------------------------- Solver Postprocessing -------------------------
Deleted CNumerics container.
Deleted CIntegration container.
Deleted CSolver container.
Deleted CIteration container.
Deleted CInterface container.
Deleted CGeometry container.
Deleted CFreeFormDefBox class.
Deleted CSurfaceMovement class.
Deleted CVolumetricMovement class.
Deleted CConfig container.
Deleted nInst container.
Deleted COutput class.
-------------------------------------------------------------------------

------------------------- Exit Success (SU2_CFD) ------------------------

