
-------------------------------------------------------------------------
|    ___ _   _ ___                                                      |
|   / __| | | |_  )   Release 7.5.1 "Blackbird"                         |
|   \__ \ |_| |/ /                                                      |
|   |___/\___//___|   Suite (Computational Fluid Dynamics Code)         |
|                                                                       |
-------------------------------------------------------------------------
| SU2 Project Website: https://su2code.github.io                        |
|                                                                       |
| The SU2 Project is maintained by the SU2 Foundation                   |
| (http://su2foundation.org)                                            |
-------------------------------------------------------------------------
| Copyright 2012-2023, SU2 Contributors                                 |
|                                                                       |
| SU2 is free software; you can redistribute it and/or                  |
| modify it under the terms of the GNU Lesser General Public            |
| License as published by the Free Software Foundation; either          |
| version 2.1 of the License, or (at your option) any later version.    |
|                                                                       |
| SU2 is distributed in the hope that it will be useful,                |
| but WITHOUT ANY WARRANTY; without even the implied warranty of        |
| MERCHANTABILITY or FITNESS FOR A PARTICULAR PURPOSE. See the GNU      |
| Lesser General Public License for more details.                       |
|                                                                       |
| You should have received a copy of the GNU Lesser General Public      |
| License along with SU2. If not, see <http://www.gnu.org/licenses/>.   |
-------------------------------------------------------------------------

Parsing config file for zone 0

----------------- Physical Case Definition ( Zone 0 ) -------------------
Compressible Euler equations.
Mach number: 1.7.
Angle of attack (AoA): 0 deg, and angle of sideslip (AoS): 0 deg.
Reading and writing binary SU2 native restart files.
Read flow solution from: solution_flow.dat.
Dimensional simulation.
The reference area is 1 m^2.
The semi-span will be computed using the max y(3D) value.
The reference length is 1 m.
Input mesh file name: mesh4.su2

--------------- Space Numerical Integration ( Zone 0 ) ------------------
Roe (with entropy fix = 0.001) solver for the flow inviscid terms.
Standard Roe without low-dissipation function.
Second order integration in space, with slope limiter.
Venkatakrishnan slope-limiting method, with constant: 0.001.
The reference element size is: 1. 
Gradient for upwind reconstruction: inverse-distance weighted Least-Squares.
Gradient for viscous and source terms: inverse-distance weighted Least-Squares.

--------------- Time Numerical Integration  ( Zone 0 ) ------------------
Local time stepping (steady state simulation).
Euler implicit method for the flow equations.
FGMRES is used for solving the linear system.
Using a ILU(0) preconditioning.
Convergence criteria of the linear solver: 1e-06.
Max number of linear iterations: 20.
No CFL adaptation.
Courant-Friedrichs-Lewy number:      0.1

------------------ Convergence Criteria  ( Zone 0 ) ---------------------
Maximum number of solver subiterations: 10000.
Begin convergence monitoring at iteration 10.
Residual minimum value: 1e-11.
Cauchy series min. value: 1e-10.
Number of Cauchy elements: 100.
Begin windowed time average at iteration 0.

-------------------- Output Information ( Zone 0 ) ----------------------
File writing frequency: 
+------------------------------------+
|                     File| Frequency|
+------------------------------------+
|                  RESTART|       100|
|                 PARAVIEW|       100|
|         SURFACE_PARAVIEW|       100|
+------------------------------------+
Writing the convergence history file every 1 inner iterations.
Writing the screen convergence history every 1 inner iterations.
The tabular file format is CSV (.csv).
Convergence history file name: history.
Forces breakdown file name: forces_breakdown.dat.
Surface file name: surface_flow.
Volume file name: flow.
Restart file name: restart_flow.dat.

------------- Config File Boundary Information ( Zone 0 ) ---------------
+-----------------------------------------------------------------------+
|                        Marker Type|                        Marker Name|
+-----------------------------------------------------------------------+
|                         Euler wall|                                  4|
|                                   |                                  5|
+-----------------------------------------------------------------------+
|                     Symmetry plane|                                  2|
+-----------------------------------------------------------------------+
|                   Riemann boundary|                                  1|
|                                   |                                  3|
+-----------------------------------------------------------------------+

-------------------- Output Preprocessing ( Zone 0 ) --------------------

WARNING: SURFACE_PRESSURE_DROP can only be computed for at least 2 surfaces (outlet, inlet, ...)

Screen output fields: INNER_ITER, WALL_TIME, RMS_DENSITY
History output group(s): ITER, RMS_RES
Convergence field(s): RMS_DENSITY
Warning: No (valid) fields chosen for time convergence monitoring. Time convergence monitoring inactive.
Volume output fields: COORDINATES, SOLUTION, PRIMITIVE

------------------- Geometry Preprocessing ( Zone 0 ) -------------------
Two dimensional problem.
14892 grid points before partitioning.
29547 volume elements before partitioning.
5 surface markers.
40 boundary elements in index 0 (Marker = 1).
50 boundary elements in index 1 (Marker = 2).
74 boundary elements in index 2 (Marker = 3).
50 boundary elements in index 3 (Marker = 4).
21 boundary elements in index 4 (Marker = 5).
Executing the partitioning functions.
Building the graph adjacency structure.
Calling ParMETIS... graph partitioning complete (518 edge cuts).
Distributing ParMETIS coloring.
Rebalancing vertices.
Rebalancing volume element connectivity.
Rebalancing markers and surface elements.
15420 vertices including ghost points. 
30065 interior elements including halo cells. 
30065 triangles.
Establishing MPI communication patterns.
Setting point connectivity.
Renumbering points (Reverse Cuthill McKee Ordering).
Recomputing point connectivity.
Setting element connectivity.
Checking the numerical grid orientation.
All volume elements are correctly orientend.
There has been a re-orientation of 240 LINE surface elements.
Identifying edges and vertices.
Setting the control volume structure.
Area of the computational grid: 0.909444.
Searching for the closest normal neighbors to the surfaces.
Storing a mapping from global to local point index.
Compute the surface curvature.
Max K: 223.734. Mean K: 4.3029. Standard deviation K: 24.0334.
Checking for periodicity.
Computing mesh quality statistics for the dual control volumes.
+--------------------------------------------------------------+
|           Mesh Quality Metric|        Minimum|        Maximum|
+--------------------------------------------------------------+
|    Orthogonality Angle (deg.)|         50.486|        89.9979|
|     CV Face Area Aspect Ratio|        1.00027|        7.72288|
|           CV Sub-Volume Ratio|              1|        9.54814|
+--------------------------------------------------------------+
Finding max control volume width.
Communicating number of neighbors.
Wetted area = 0 m.
Area projection in the x-plane = 0 m, y-plane = 0 m.
Max. coordinate in the x-direction = -1e+10 m, y-direction = -1e+10 m.
Min. coordinate in the x-direction = 1e+10 m, y-direction = 1e+10 m.
Checking if Euler & Symmetry markers are straight/plane:
Boundary marker 4 is a single straight.
Boundary marker 5 is a single straight.
Boundary marker 2 is a single straight.
Computing wall distances.

-------------------- Solver Preprocessing ( Zone 0 ) --------------------
Inviscid flow: Computing density based on free-stream
temperature and pressure using the ideal gas law.
Force coefficients computed using free-stream values.

-- Models:
+------------------------------------------------------------------------------+
|          Viscosity Model|        Conductivity Model|              Fluid Model|
+------------------------------------------------------------------------------+
|                        -|                         -|         CoolProp library|
+------------------------------------------------------------------------------+
-- Fluid properties:
+------------------------------------------------------------------------------+
|                  Name|    Dim. value|    Ref. value|      Unit|Non-dim. value|
+------------------------------------------------------------------------------+
|          Gas Constant|       35.1516|             1|  N.m/kg.K|       35.1516|
|      Spec. Heat Ratio|             -|             -|         -|             -|
|     Critical Pressure|   1.41004e+06|             1|          |   1.41004e+06|
|  Critical Temperature|        564.09|             1|         K|        564.09|
+------------------------------------------------------------------------------+
-- Initial and free-stream conditions:
+------------------------------------------------------------------------------+
|                  Name|    Dim. value|    Ref. value|      Unit|Non-dim. value|
+------------------------------------------------------------------------------+
|       Static Pressure|    1.4999e+06|             1|        Pa|    1.4999e+06|
|               Density|       202.888|             1|    kg/m^3|       202.888|
|           Temperature|       569.844|             1|         K|       569.844|
|          Total Energy|        369670|             1|   m^2/s^2|        369670|
|            Velocity-X|       85.2978|             1|       m/s|       85.2978|
|            Velocity-Y|             0|             1|       m/s|             0|
|    Velocity Magnitude|       85.2978|             1|       m/s|       85.2978|
+------------------------------------------------------------------------------+
|           Mach Number|             -|             -|         -|           1.7|
+------------------------------------------------------------------------------+
Initialize Jacobian structure (Euler). MG level: 0.

------------------- Numerics Preprocessing ( Zone 0 ) -------------------

----------------- Integration Preprocessing ( Zone 0 ) ------------------

------------------- Iteration Preprocessing ( Zone 0 ) ------------------
Euler/Navier-Stokes/RANS fluid iteration.

------------------------------ Begin Solver -----------------------------

Simulation Run using the Single-zone Driver
+--------------------------------------+
|  Inner_Iter|   Time(sec)|    rms[Rho]|
+--------------------------------------+
|           0|  4.4955e-01|   -1.097671|
|           1|  4.4806e-01|   -1.104209|
|           2|  4.4811e-01|   -1.110512|
|           3|  4.4764e-01|   -1.116562|
|           4|  4.4958e-01|   -1.122407|
|           5|  4.4917e-01|   -1.128060|
|           6|  4.4872e-01|   -1.133514|
|           7|  4.4848e-01|   -1.138766|
|           8|  4.4833e-01|   -1.143825|
|           9|  4.4829e-01|   -1.148715|
|          10|  4.4813e-01|   -1.153446|
|          11|  4.4826e-01|   -1.158018|
|          12|  4.4943e-01|   -1.162457|
|          13|  4.4918e-01|   -1.166760|
|          14|  4.4955e-01|   -1.170931|
|          15|  4.4941e-01|   -1.174982|
|          16|  4.4971e-01|   -1.178909|
|          17|  4.4985e-01|   -1.182723|
|          18|  4.5011e-01|   -1.186430|
|          19|  4.5016e-01|   -1.190035|
|          20|  4.5039e-01|   -1.193546|
|          21|  4.5049e-01|   -1.196962|
|          22|  4.5203e-01|   -1.200284|
|          23|  4.5217e-01|   -1.203525|
|          24|  4.5198e-01|   -1.206686|
|          25|  4.5195e-01|   -1.209774|
|          26|  4.5204e-01|   -1.212782|
|          27|  4.5189e-01|   -1.215717|
|          28|  4.5193e-01|   -1.218572|
|          29|  4.5184e-01|   -1.221349|
|          30|  4.5221e-01|   -1.224056|
|          31|  4.5228e-01|   -1.226696|
|          32|  4.5241e-01|   -1.229274|
|          33|  4.5299e-01|   -1.231790|
|          34|  4.5294e-01|   -1.234258|
|          35|  4.5280e-01|   -1.236653|
|          36|  4.5271e-01|   -1.239000|
|          37|  4.5259e-01|   -1.241296|
|          38|  4.5244e-01|   -1.243543|
|          39|  4.5231e-01|   -1.245749|
|          40|  4.5232e-01|   -1.247915|
|          41|  4.5211e-01|   -1.250029|
|          42|  4.5193e-01|   -1.252107|
|          43|  4.5176e-01|   -1.254141|
|          44|  4.5187e-01|   -1.256137|
|          45|  4.5172e-01|   -1.258094|
|          46|  4.5161e-01|   -1.260011|
|          47|  4.5146e-01|   -1.261906|
|          48|  4.5133e-01|   -1.263745|
|          49|  4.5119e-01|   -1.265558|
|          50|  4.5109e-01|   -1.267340|
|          51|  4.5097e-01|   -1.269087|
|          52|  4.5095e-01|   -1.270798|
|          53|  4.5091e-01|   -1.272479|
|          54|  4.5079e-01|   -1.274125|
|          55|  4.5070e-01|   -1.275757|
|          56|  4.5068e-01|   -1.277353|
|          57|  4.5060e-01|   -1.278926|
|          58|  4.5053e-01|   -1.280476|
|          59|  4.5052e-01|   -1.282003|
|          60|  4.5061e-01|   -1.283500|
|          61|  4.5071e-01|   -1.284982|
|          62|  4.5074e-01|   -1.286440|
|          63|  4.5071e-01|   -1.287885|
|          64|  4.5081e-01|   -1.289302|
|          65|  4.5079e-01|   -1.290709|
|          66|  4.5074e-01|   -1.292093|
|          67|  4.5068e-01|   -1.293448|
|          68|  4.5079e-01|   -1.294793|
|          69|  4.5075e-01|   -1.296110|
|          70|  4.5076e-01|   -1.297415|
|          71|  4.5083e-01|   -1.298694|
|          72|  4.5081e-01|   -1.299958|
|          73|  4.5082e-01|   -1.301200|
|          74|  4.5073e-01|   -1.302424|
|          75|  4.5263e-01|   -1.303646|
|          76|  4.5374e-01|   -1.304846|
|          77|  4.5406e-01|   -1.306033|
|          78|  4.5446e-01|   -1.307199|
|          79|  4.5483e-01|   -1.308367|
|          80|  4.5529e-01|   -1.309515|
|          81|  4.5616e-01|   -1.310644|
|          82|  4.5650e-01|   -1.311755|
|          83|  4.5671e-01|   -1.312867|
|          84|  4.5697e-01|   -1.313960|
|          85|  4.5717e-01|   -1.315048|
|          86|  4.5736e-01|   -1.316128|
|          87|  4.5759e-01|   -1.317186|
|          88|  4.5808e-01|   -1.318234|
|          89|  4.5845e-01|   -1.319284|
|          90|  4.5865e-01|   -1.320307|
|          91|  4.5886e-01|   -1.321326|
|          92|  4.5906e-01|   -1.322332|
|          93|  4.5946e-01|   -1.323334|
|          94|  4.5960e-01|   -1.324321|
|          95|  4.5977e-01|   -1.325297|
|          96|  4.5996e-01|   -1.326262|
|          97|  4.6014e-01|   -1.327221|
|          98|  4.6032e-01|   -1.328165|
|          99|  4.6049e-01|   -1.329108|
|         100|  4.6066e-01|   -1.330043|
+-----------------------------------------------------------------------+
|        File Writing Summary       |              Filename             |
+-----------------------------------------------------------------------+
|SU2 binary restart                 |restart_flow.dat                   |
|Paraview                           |flow.vtu                           |
|Paraview surface                   |surface_flow.vtu                   |
+-----------------------------------------------------------------------+
+--------------------------------------+
|  Inner_Iter|   Time(sec)|    rms[Rho]|
+--------------------------------------+
|         101|  4.6087e-01|   -1.330965|
|         102|  4.6103e-01|   -1.331877|
|         103|  4.6116e-01|   -1.332779|
|         104|  4.6133e-01|   -1.333683|
|         105|  4.6147e-01|   -1.334566|
|         106|  4.6159e-01|   -1.335456|
|         107|  4.6194e-01|   -1.336324|
|         108|  4.6217e-01|   -1.337190|
|         109|  4.6243e-01|   -1.338045|
|         110|  4.6267e-01|   -1.338890|
|         111|  4.6309e-01|   -1.339738|
|         112|  4.6327e-01|   -1.340567|
|         113|  4.6391e-01|   -1.341396|
|         114|  4.6414e-01|   -1.342210|
|         115|  4.6451e-01|   -1.343013|
|         116|  4.6471e-01|   -1.343828|
|         117|  4.6493e-01|   -1.344611|
|         118|  4.6518e-01|   -1.345392|
|         119|  4.6540e-01|   -1.346178|
|         120|  4.6553e-01|   -1.346949|
|         121|  4.6564e-01|   -1.347704|
|         122|  4.6585e-01|   -1.348468|
|         123|  4.6599e-01|   -1.349211|
|         124|  4.6609e-01|   -1.349935|
|         125|  4.6649e-01|   -1.350684|
|         126|  4.6655e-01|   -1.351405|
|         127|  4.6661e-01|   -1.352135|
|         128|  4.6670e-01|   -1.352828|
|         129|  4.6681e-01|   -1.353546|
|         130|  4.6696e-01|   -1.354239|
|         131|  4.6705e-01|   -1.354935|
|         132|  4.6716e-01|   -1.355617|
|         133|  4.6729e-01|   -1.356301|
|         134|  4.6751e-01|   -1.356959|
|         135|  4.6764e-01|   -1.357634|
|         136|  4.6782e-01|   -1.358288|
|         137|  4.6806e-01|   -1.358946|
|         138|  4.6843e-01|   -1.359573|
|         139|  4.6869e-01|   -1.360230|
|         140|  4.6925e-01|   -1.360854|
|         141|  4.6941e-01|   -1.361493|
|         142|  4.6948e-01|   -1.362100|
|         143|  4.6962e-01|   -1.362728|
|         144|  4.6970e-01|   -1.363330|
|         145|  4.6985e-01|   -1.363930|
|         146|  4.7008e-01|   -1.364523|
|         147|  4.7021e-01|   -1.365112|
|         148|  4.7036e-01|   -1.365683|
|         149|  4.7058e-01|   -1.366272|
|         150|  4.7065e-01|   -1.366851|
|         151|  4.7066e-01|   -1.367411|
|         152|  4.7068e-01|   -1.367982|
|         153|  4.7072e-01|   -1.368530|
|         154|  4.7077e-01|   -1.369078|
|         155|  4.7082e-01|   -1.369637|
|         156|  4.7083e-01|   -1.370160|
|         157|  4.7084e-01|   -1.370699|
|         158|  4.7118e-01|   -1.371216|
|         159|  4.7124e-01|   -1.371761|
|         160|  4.7125e-01|   -1.372269|
|         161|  4.7126e-01|   -1.372791|
|         162|  4.7127e-01|   -1.373300|
|         163|  4.7134e-01|   -1.373787|
|         164|  4.7140e-01|   -1.374298|
|         165|  4.7149e-01|   -1.374781|
|         166|  4.7177e-01|   -1.375267|
|         167|  4.7180e-01|   -1.375755|
|         168|  4.7181e-01|   -1.376227|
|         169|  4.7182e-01|   -1.376699|
|         170|  4.7183e-01|   -1.377163|
|         171|  4.7183e-01|   -1.377621|
|         172|  4.7184e-01|   -1.378091|
|         173|  4.7185e-01|   -1.378549|
|         174|  4.7195e-01|   -1.378996|
|         175|  4.7199e-01|   -1.379439|
|         176|  4.7200e-01|   -1.379876|
|         177|  4.7201e-01|   -1.380320|
|         178|  4.7202e-01|   -1.380743|
|         179|  4.7202e-01|   -1.381165|
|         180|  4.7207e-01|   -1.381584|
|         181|  4.7213e-01|   -1.382009|
|         182|  4.7214e-01|   -1.382416|
|         183|  4.7219e-01|   -1.382844|
|         184|  4.7224e-01|   -1.383233|
|         185|  4.7237e-01|   -1.383643|
|         186|  4.7250e-01|   -1.384034|
|         187|  4.7251e-01|   -1.384432|
|         188|  4.7252e-01|   -1.384813|
|         189|  4.7254e-01|   -1.385214|
|         190|  4.7255e-01|   -1.385595|
|         191|  4.7256e-01|   -1.385969|
|         192|  4.7258e-01|   -1.386350|
|         193|  4.7287e-01|   -1.386728|
|         194|  4.7308e-01|   -1.387083|
|         195|  4.7336e-01|   -1.387457|
|         196|  4.7351e-01|   -1.387816|
|         197|  4.7354e-01|   -1.388177|
|         198|  4.7357e-01|   -1.388518|
|         199|  4.7367e-01|   -1.388895|
|         200|  4.7371e-01|   -1.389238|
+-----------------------------------------------------------------------+
|        File Writing Summary       |              Filename             |
+-----------------------------------------------------------------------+
|SU2 binary restart                 |restart_flow.dat                   |
|Paraview                           |flow.vtu                           |
|Paraview surface                   |surface_flow.vtu                   |
+-----------------------------------------------------------------------+
+--------------------------------------+
|  Inner_Iter|   Time(sec)|    rms[Rho]|
+--------------------------------------+
|         201|  4.7390e-01|   -1.389571|
|         202|  4.7393e-01|   -1.389914|
|         203|  4.7396e-01|   -1.390254|
|         204|  4.7406e-01|   -1.390581|
|         205|  4.7409e-01|   -1.390921|
|         206|  4.7411e-01|   -1.391255|
|         207|  4.7420e-01|   -1.391590|
|         208|  4.7423e-01|   -1.391908|
|         209|  4.7423e-01|   -1.392224|
|         210|  4.7421e-01|   -1.392546|
|         211|  4.7432e-01|   -1.392849|
|         212|  4.7439e-01|   -1.393157|
|         213|  4.7443e-01|   -1.393472|
|         214|  4.7445e-01|   -1.393773|
|         215|  4.7456e-01|   -1.394077|
|         216|  4.7457e-01|   -1.394378|
|         217|  4.7480e-01|   -1.394654|
|         218|  4.7483e-01|   -1.394977|
|         219|  4.7484e-01|   -1.395266|
|         220|  4.7493e-01|   -1.395546|
|         221|  4.7498e-01|   -1.395832|
|         222|  4.7501e-01|   -1.396122|
|         223|  4.7509e-01|   -1.396391|
|         224|  4.7514e-01|   -1.396684|
|         225|  4.7518e-01|   -1.396939|
|         226|  4.7520e-01|   -1.397230|
|         227|  4.7522e-01|   -1.397483|
|         228|  4.7523e-01|   -1.397773|
|         229|  4.7524e-01|   -1.398029|
|         230|  4.7525e-01|   -1.398293|
|         231|  4.7527e-01|   -1.398552|
|         232|  4.7528e-01|   -1.398812|
|         233|  4.7533e-01|   -1.399034|
|         234|  4.7574e-01|   -1.399313|
|         235|  4.7580e-01|   -1.399573|
|         236|  4.7580e-01|   -1.399805|
|         237|  4.7588e-01|   -1.400065|
|         238|  4.7587e-01|   -1.400314|
|         239|  4.7588e-01|   -1.400532|
|         240|  4.7594e-01|   -1.400802|
|         241|  4.7596e-01|   -1.401025|
|         242|  4.7606e-01|   -1.401271|
|         243|  4.7612e-01|   -1.401526|
|         244|  4.7618e-01|   -1.401728|
|         245|  4.7623e-01|   -1.401976|
|         246|  4.7626e-01|   -1.402214|
|         247|  4.7626e-01|   -1.402400|
|         248|  4.7628e-01|   -1.402660|
|         249|  4.7628e-01|   -1.402866|
|         250|  4.7627e-01|   -1.403081|
|         251|  4.7629e-01|   -1.403308|
|         252|  4.7642e-01|   -1.403534|
|         253|  4.7648e-01|   -1.403739|
|         254|  4.7648e-01|   -1.403952|
|         255|  4.7652e-01|   -1.404154|
|         256|  4.7683e-01|   -1.404373|
|         257|  4.7691e-01|   -1.404580|
|         258|  4.7693e-01|   -1.404763|
|         259|  4.7695e-01|   -1.404996|
|         260|  4.7700e-01|   -1.405180|
|         261|  4.7700e-01|   -1.405378|
|         262|  4.7701e-01|   -1.405576|
|         263|  4.7700e-01|   -1.405762|
|         264|  4.7704e-01|   -1.405971|
|         265|  4.7703e-01|   -1.406133|
|         266|  4.7702e-01|   -1.406355|
|         267|  4.7701e-01|   -1.406532|
|         268|  4.7701e-01|   -1.406726|
|         269|  4.7700e-01|   -1.406894|
|         270|  4.7700e-01|   -1.407105|
|         271|  4.7699e-01|   -1.407249|
|         272|  4.7705e-01|   -1.407452|
|         273|  4.7738e-01|   -1.407631|
|         274|  4.7765e-01|   -1.407794|
|         275|  4.7772e-01|   -1.407980|
|         276|  4.7777e-01|   -1.408169|
|         277|  4.7777e-01|   -1.408324|
|         278|  4.7777e-01|   -1.408495|
|         279|  4.7778e-01|   -1.408678|
|         280|  4.7785e-01|   -1.408844|
|         281|  4.7785e-01|   -1.409007|
|         282|  4.7789e-01|   -1.409166|
|         283|  4.7790e-01|   -1.409348|
|         284|  4.7790e-01|   -1.409494|
|         285|  4.7790e-01|   -1.409673|
|         286|  4.7790e-01|   -1.409839|
|         287|  4.7790e-01|   -1.409997|
|         288|  4.7790e-01|   -1.410154|
|         289|  4.7793e-01|   -1.410305|
|         290|  4.7795e-01|   -1.410466|
|         291|  4.7801e-01|   -1.410646|
|         292|  4.7803e-01|   -1.410780|
|         293|  4.7803e-01|   -1.410929|
|         294|  4.7813e-01|   -1.411084|
|         295|  4.7821e-01|   -1.411247|
|         296|  4.7824e-01|   -1.411410|
|         297|  4.7828e-01|   -1.411548|
|         298|  4.7849e-01|   -1.411686|
|         299|  4.7850e-01|   -1.411851|
|         300|  4.7850e-01|   -1.411996|
+-----------------------------------------------------------------------+
|        File Writing Summary       |              Filename             |
+-----------------------------------------------------------------------+
|SU2 binary restart                 |restart_flow.dat                   |
|Paraview                           |flow.vtu                           |
|Paraview surface                   |surface_flow.vtu                   |
+-----------------------------------------------------------------------+
+--------------------------------------+
|  Inner_Iter|   Time(sec)|    rms[Rho]|
+--------------------------------------+
|         301|  4.7851e-01|   -1.412136|
|         302|  4.7850e-01|   -1.412283|
|         303|  4.7851e-01|   -1.412422|
|         304|  4.7851e-01|   -1.412551|
|         305|  4.7853e-01|   -1.412699|
|         306|  4.7855e-01|   -1.412860|
|         307|  4.7855e-01|   -1.412991|
|         308|  4.7854e-01|   -1.413128|
|         309|  4.7853e-01|   -1.413257|
|         310|  4.7853e-01|   -1.413402|
|         311|  4.7852e-01|   -1.413519|
|         312|  4.7851e-01|   -1.413667|
|         313|  4.7850e-01|   -1.413829|
|         314|  4.7849e-01|   -1.413939|
|         315|  4.7848e-01|   -1.414070|
|         316|  4.7846e-01|   -1.414215|
|         317|  4.7844e-01|   -1.414349|
|         318|  4.7842e-01|   -1.414450|
|         319|  4.7839e-01|   -1.414600|
|         320|  4.7841e-01|   -1.414734|
|         321|  4.7854e-01|   -1.414846|
|         322|  4.7852e-01|   -1.414967|
|         323|  4.7851e-01|   -1.415094|
|         324|  4.7850e-01|   -1.415224|
|         325|  4.7848e-01|   -1.415349|
|         326|  4.7849e-01|   -1.415490|
|         327|  4.7852e-01|   -1.415605|
|         328|  4.7854e-01|   -1.415714|
|         329|  4.7852e-01|   -1.415849|
|         330|  4.7850e-01|   -1.415936|
|         331|  4.7850e-01|   -1.416102|
|         332|  4.7848e-01|   -1.416211|
|         333|  4.7847e-01|   -1.416337|
|         334|  4.7845e-01|   -1.416441|
|         335|  4.7843e-01|   -1.416581|
|         336|  4.7841e-01|   -1.416687|
|         337|  4.7839e-01|   -1.416817|
|         338|  4.7840e-01|   -1.416938|
|         339|  4.7844e-01|   -1.417062|
|         340|  4.7843e-01|   -1.417190|
|         341|  4.7846e-01|   -1.417294|
|         342|  4.7845e-01|   -1.417437|
|         343|  4.7845e-01|   -1.417534|
|         344|  4.7845e-01|   -1.417679|
|         345|  4.7845e-01|   -1.417781|
|         346|  4.7845e-01|   -1.417919|
|         347|  4.7848e-01|   -1.418051|
|         348|  4.7846e-01|   -1.418163|
|         349|  4.7845e-01|   -1.418298|
|         350|  4.7844e-01|   -1.418400|
|         351|  4.7853e-01|   -1.418528|
|         352|  4.7853e-01|   -1.418641|
|         353|  4.7852e-01|   -1.418758|
|         354|  4.7850e-01|   -1.418884|
|         355|  4.7849e-01|   -1.419016|
|         356|  4.7847e-01|   -1.419144|
|         357|  4.7852e-01|   -1.419250|
|         358|  4.7850e-01|   -1.419366|
|         359|  4.7849e-01|   -1.419464|
|         360|  4.7847e-01|   -1.419612|
|         361|  4.7846e-01|   -1.419725|
|         362|  4.7844e-01|   -1.419849|
|         363|  4.7846e-01|   -1.419979|
|         364|  4.7845e-01|   -1.420090|
|         365|  4.7845e-01|   -1.420213|
|         366|  4.7844e-01|   -1.420300|
|         367|  4.7841e-01|   -1.420434|
|         368|  4.7840e-01|   -1.420562|
|         369|  4.7838e-01|   -1.420690|
|         370|  4.7836e-01|   -1.420807|
|         371|  4.7835e-01|   -1.420946|
|         372|  4.7837e-01|   -1.421048|
|         373|  4.7842e-01|   -1.421178|
|         374|  4.7841e-01|   -1.421304|
|         375|  4.7840e-01|   -1.421397|
|         376|  4.7839e-01|   -1.421539|
|         377|  4.7837e-01|   -1.421647|
|         378|  4.7837e-01|   -1.421761|
|         379|  4.7836e-01|   -1.421902|
|         380|  4.7837e-01|   -1.422007|
|         381|  4.7838e-01|   -1.422118|
|         382|  4.7836e-01|   -1.422252|
|         383|  4.7842e-01|   -1.422390|
|         384|  4.7841e-01|   -1.422461|
|         385|  4.7839e-01|   -1.422615|
|         386|  4.7838e-01|   -1.422733|
|         387|  4.7842e-01|   -1.422848|
|         388|  4.7841e-01|   -1.422973|
|         389|  4.7840e-01|   -1.423097|
|         390|  4.7839e-01|   -1.423198|
|         391|  4.7838e-01|   -1.423320|
|         392|  4.7836e-01|   -1.423457|
|         393|  4.7836e-01|   -1.423591|
|         394|  4.7835e-01|   -1.423684|
|         395|  4.7840e-01|   -1.423819|
|         396|  4.7840e-01|   -1.423927|
|         397|  4.7839e-01|   -1.424050|
|         398|  4.7838e-01|   -1.424191|
|         399|  4.7837e-01|   -1.424280|
|         400|  4.7835e-01|   -1.424416|
+-----------------------------------------------------------------------+
|        File Writing Summary       |              Filename             |
+-----------------------------------------------------------------------+
|SU2 binary restart                 |restart_flow.dat                   |
|Paraview                           |flow.vtu                           |
|Paraview surface                   |surface_flow.vtu                   |
+-----------------------------------------------------------------------+
+--------------------------------------+
|  Inner_Iter|   Time(sec)|    rms[Rho]|
+--------------------------------------+
|         401|  4.7835e-01|   -1.424532|
|         402|  4.7834e-01|   -1.424649|
|         403|  4.7841e-01|   -1.424784|
|         404|  4.7839e-01|   -1.424921|
|         405|  4.7839e-01|   -1.425021|
|         406|  4.7841e-01|   -1.425140|
|         407|  4.7840e-01|   -1.425256|
|         408|  4.7839e-01|   -1.425382|
|         409|  4.7838e-01|   -1.425496|
|         410|  4.7837e-01|   -1.425615|
|         411|  4.7836e-01|   -1.425729|
|         412|  4.7836e-01|   -1.425834|
|         413|  4.7836e-01|   -1.425957|
|         414|  4.7835e-01|   -1.426094|
|         415|  4.7838e-01|   -1.426190|
|         416|  4.7837e-01|   -1.426293|
|         417|  4.7835e-01|   -1.426411|
|         418|  4.7834e-01|   -1.426532|
|         419|  4.7833e-01|   -1.426670|
|         420|  4.7833e-01|   -1.426762|
|         421|  4.7832e-01|   -1.426908|
|         422|  4.7832e-01|   -1.427011|
|         423|  4.7836e-01|   -1.427131|
|         424|  4.7837e-01|   -1.427254|
|         425|  4.7840e-01|   -1.427367|
|         426|  4.7841e-01|   -1.427487|
|         427|  4.7844e-01|   -1.427601|
|         428|  4.7843e-01|   -1.427727|
|         429|  4.7842e-01|   -1.427843|
|         430|  4.7842e-01|   -1.427967|
|         431|  4.7843e-01|   -1.428070|
|         432|  4.7843e-01|   -1.428207|
|         433|  4.7845e-01|   -1.428321|
|         434|  4.7844e-01|   -1.428436|
|         435|  4.7844e-01|   -1.428547|
|         436|  4.7843e-01|   -1.428669|
|         437|  4.7843e-01|   -1.428806|
|         438|  4.7849e-01|   -1.428899|
|         439|  4.7851e-01|   -1.429018|
|         440|  4.7851e-01|   -1.429145|
|         441|  4.7850e-01|   -1.429272|
|         442|  4.7853e-01|   -1.429358|
|         443|  4.7852e-01|   -1.429506|
|         444|  4.7851e-01|   -1.429614|
|         445|  4.7852e-01|   -1.429743|
|         446|  4.7856e-01|   -1.429866|
|         447|  4.7860e-01|   -1.429996|
|         448|  4.7858e-01|   -1.430091|
|         449|  4.7857e-01|   -1.430221|
|         450|  4.7856e-01|   -1.430346|
|         451|  4.7856e-01|   -1.430478|
|         452|  4.7859e-01|   -1.430593|
|         453|  4.7862e-01|   -1.430721|
|         454|  4.7861e-01|   -1.430841|
|         455|  4.7860e-01|   -1.430949|
|         456|  4.7859e-01|   -1.431100|
|         457|  4.7858e-01|   -1.431195|
|         458|  4.7856e-01|   -1.431334|
|         459|  4.7855e-01|   -1.431440|
|         460|  4.7855e-01|   -1.431578|
|         461|  4.7854e-01|   -1.431687|
|         462|  4.7853e-01|   -1.431839|
|         463|  4.7852e-01|   -1.431933|
|         464|  4.7852e-01|   -1.432058|
|         465|  4.7851e-01|   -1.432206|
|         466|  4.7850e-01|   -1.432324|
|         467|  4.7850e-01|   -1.432450|
|         468|  4.7849e-01|   -1.432577|
|         469|  4.7847e-01|   -1.432700|
|         470|  4.7846e-01|   -1.432824|
|         471|  4.7845e-01|   -1.432944|
|         472|  4.7845e-01|   -1.433089|
|         473|  4.7847e-01|   -1.433204|
|         474|  4.7847e-01|   -1.433344|
|         475|  4.7847e-01|   -1.433477|
|         476|  4.7846e-01|   -1.433603|
|         477|  4.7844e-01|   -1.433716|
|         478|  4.7844e-01|   -1.433859|
|         479|  4.7843e-01|   -1.433983|
|         480|  4.7842e-01|   -1.434116|
|         481|  4.7842e-01|   -1.434241|
|         482|  4.7840e-01|   -1.434378|
|         483|  4.7841e-01|   -1.434500|
|         484|  4.7844e-01|   -1.434646|
|         485|  4.7844e-01|   -1.434768|
|         486|  4.7844e-01|   -1.434911|
|         487|  4.7844e-01|   -1.435016|
|         488|  4.7844e-01|   -1.435181|
|         489|  4.7843e-01|   -1.435306|
|         490|  4.7843e-01|   -1.435423|
|         491|  4.7843e-01|   -1.435565|
|         492|  4.7843e-01|   -1.435705|
|         493|  4.7843e-01|   -1.435819|
|         494|  4.7845e-01|   -1.435968|
|         495|  4.7847e-01|   -1.436080|
|         496|  4.7849e-01|   -1.436228|
|         497|  4.7850e-01|   -1.436364|
|         498|  4.7855e-01|   -1.436485|
|         499|  4.7856e-01|   -1.436627|
|         500|  4.7856e-01|   -1.436754|
+-----------------------------------------------------------------------+
|        File Writing Summary       |              Filename             |
+-----------------------------------------------------------------------+
|SU2 binary restart                 |restart_flow.dat                   |
|Paraview                           |flow.vtu                           |
|Paraview surface                   |surface_flow.vtu                   |
+-----------------------------------------------------------------------+
+--------------------------------------+
|  Inner_Iter|   Time(sec)|    rms[Rho]|
+--------------------------------------+
|         501|  4.7857e-01|   -1.436860|
|         502|  4.7857e-01|   -1.437013|
|         503|  4.7857e-01|   -1.437115|
|         504|  4.7857e-01|   -1.437281|
|         505|  4.7856e-01|   -1.437422|
|         506|  4.7858e-01|   -1.437535|
|         507|  4.7863e-01|   -1.437681|
|         508|  4.7863e-01|   -1.437840|
|         509|  4.7864e-01|   -1.437982|
|         510|  4.7864e-01|   -1.438107|
|         511|  4.7863e-01|   -1.438253|
|         512|  4.7863e-01|   -1.438385|
|         513|  4.7862e-01|   -1.438525|
|         514|  4.7862e-01|   -1.438693|
|         515|  4.7861e-01|   -1.438812|
|         516|  4.7860e-01|   -1.438951|
|         517|  4.7863e-01|   -1.439077|
|         518|  4.7863e-01|   -1.439230|
|         519|  4.7863e-01|   -1.439384|
|         520|  4.7862e-01|   -1.439492|
|         521|  4.7862e-01|   -1.439632|
|         522|  4.7863e-01|   -1.439795|
|         523|  4.7862e-01|   -1.439914|
|         524|  4.7862e-01|   -1.440063|
|         525|  4.7861e-01|   -1.440185|
|         526|  4.7870e-01|   -1.440330|
|         527|  4.7892e-01|   -1.440451|
|         528|  4.7892e-01|   -1.440584|
|         529|  4.7897e-01|   -1.440734|
|         530|  4.7895e-01|   -1.440896|
|         531|  4.7898e-01|   -1.441018|
|         532|  4.7900e-01|   -1.441133|
|         533|  4.7900e-01|   -1.441275|
|         534|  4.7902e-01|   -1.441438|
|         535|  4.7908e-01|   -1.441574|
|         536|  4.7909e-01|   -1.441709|
|         537|  4.7909e-01|   -1.441852|
|         538|  4.7913e-01|   -1.441982|
|         539|  4.7918e-01|   -1.442131|
|         540|  4.7918e-01|   -1.442265|
|         541|  4.7919e-01|   -1.442401|
|         542|  4.7919e-01|   -1.442531|
|         543|  4.7920e-01|   -1.442654|
|         544|  4.7922e-01|   -1.442839|
|         545|  4.7922e-01|   -1.442944|
|         546|  4.7922e-01|   -1.443094|
|         547|  4.7920e-01|   -1.443242|
|         548|  4.7929e-01|   -1.443386|
|         549|  4.7932e-01|   -1.443506|
|         550|  4.7933e-01|   -1.443662|
|         551|  4.7934e-01|   -1.443783|
|         552|  4.7937e-01|   -1.443918|
|         553|  4.7940e-01|   -1.444073|
|         554|  4.7941e-01|   -1.444201|
|         555|  4.7940e-01|   -1.444319|
|         556|  4.7938e-01|   -1.444479|
|         557|  4.7939e-01|   -1.444597|
|         558|  4.7939e-01|   -1.444738|
|         559|  4.7938e-01|   -1.444869|
|         560|  4.7942e-01|   -1.445005|
|         561|  4.7941e-01|   -1.445147|
|         562|  4.7940e-01|   -1.445279|
|         563|  4.7940e-01|   -1.445411|
|         564|  4.7939e-01|   -1.445548|
|         565|  4.7938e-01|   -1.445687|
|         566|  4.7937e-01|   -1.445793|
|         567|  4.7936e-01|   -1.445942|
|         568|  4.7935e-01|   -1.446061|
|         569|  4.7934e-01|   -1.446211|
|         570|  4.7934e-01|   -1.446330|
|         571|  4.7933e-01|   -1.446486|
|         572|  4.7935e-01|   -1.446613|
|         573|  4.7934e-01|   -1.446749|
|         574|  4.7934e-01|   -1.446850|
|         575|  4.7933e-01|   -1.446995|
|         576|  4.7935e-01|   -1.447117|
|         577|  4.7936e-01|   -1.447246|
|         578|  4.7936e-01|   -1.447378|
|         579|  4.7935e-01|   -1.447516|
|         580|  4.7934e-01|   -1.447625|
|         581|  4.7934e-01|   -1.447766|
|         582|  4.7933e-01|   -1.447901|
|         583|  4.7932e-01|   -1.448023|
|         584|  4.7931e-01|   -1.448145|
|         585|  4.7930e-01|   -1.448266|
|         586|  4.7929e-01|   -1.448392|
|         587|  4.7932e-01|   -1.448537|
|         588|  4.7932e-01|   -1.448675|
|         589|  4.7933e-01|   -1.448806|
|         590|  4.7936e-01|   -1.448944|
|         591|  4.7938e-01|   -1.449086|
|         592|  4.7938e-01|   -1.449201|
|         593|  4.7937e-01|   -1.449328|
|         594|  4.7939e-01|   -1.449471|
|         595|  4.7939e-01|   -1.449613|
|         596|  4.7938e-01|   -1.449708|
|         597|  4.7938e-01|   -1.449858|
|         598|  4.7940e-01|   -1.449987|
|         599|  4.7940e-01|   -1.450131|
|         600|  4.7942e-01|   -1.450249|
+-----------------------------------------------------------------------+
|        File Writing Summary       |              Filename             |
+-----------------------------------------------------------------------+
|SU2 binary restart                 |restart_flow.dat                   |
|Paraview                           |flow.vtu                           |
|Paraview surface                   |surface_flow.vtu                   |
+-----------------------------------------------------------------------+
+--------------------------------------+
|  Inner_Iter|   Time(sec)|    rms[Rho]|
+--------------------------------------+
|         601|  4.7943e-01|   -1.450401|
|         602|  4.7942e-01|   -1.450515|
|         603|  4.7942e-01|   -1.450661|
|         604|  4.7941e-01|   -1.450769|
|         605|  4.7942e-01|   -1.450919|
|         606|  4.7943e-01|   -1.451039|
|         607|  4.7945e-01|   -1.451170|
|         608|  4.7945e-01|   -1.451286|
|         609|  4.7946e-01|   -1.451440|
|         610|  4.7947e-01|   -1.451559|
|         611|  4.7947e-01|   -1.451685|
|         612|  4.7948e-01|   -1.451819|
|         613|  4.7949e-01|   -1.451965|
|         614|  4.7949e-01|   -1.452096|
|         615|  4.7949e-01|   -1.452185|
|         616|  4.7949e-01|   -1.452378|
|         617|  4.7950e-01|   -1.452481|
|         618|  4.7951e-01|   -1.452624|
|         619|  4.7951e-01|   -1.452768|
|         620|  4.7954e-01|   -1.452898|
|         621|  4.7957e-01|   -1.453047|
|         622|  4.7956e-01|   -1.453162|
|         623|  4.7956e-01|   -1.453298|
|         624|  4.7956e-01|   -1.453437|
|         625|  4.7956e-01|   -1.453562|
|         626|  4.7956e-01|   -1.453687|
|         627|  4.7956e-01|   -1.453860|
|         628|  4.7956e-01|   -1.453986|
|         629|  4.7957e-01|   -1.454109|
|         630|  4.7958e-01|   -1.454245|
|         631|  4.7958e-01|   -1.454403|
|         632|  4.7957e-01|   -1.454524|
|         633|  4.7956e-01|   -1.454688|
|         634|  4.7956e-01|   -1.454805|
|         635|  4.7955e-01|   -1.454934|
|         636|  4.7957e-01|   -1.455108|
|         637|  4.7960e-01|   -1.455222|
|         638|  4.7965e-01|   -1.455370|
|         639|  4.7976e-01|   -1.455529|
|         640|  4.7976e-01|   -1.455646|
|         641|  4.7977e-01|   -1.455790|
|         642|  4.7981e-01|   -1.455942|
|         643|  4.7982e-01|   -1.456067|
|         644|  4.7981e-01|   -1.456215|
|         645|  4.7982e-01|   -1.456357|
|         646|  4.7984e-01|   -1.456500|
|         647|  4.7984e-01|   -1.456627|
|         648|  4.7986e-01|   -1.456778|
|         649|  4.8001e-01|   -1.456920|
|         650|  4.8006e-01|   -1.457058|
|         651|  4.8007e-01|   -1.457194|
|         652|  4.8013e-01|   -1.457361|
|         653|  4.8015e-01|   -1.457496|
|         654|  4.8016e-01|   -1.457619|
|         655|  4.8019e-01|   -1.457764|
|         656|  4.8020e-01|   -1.457922|
|         657|  4.8026e-01|   -1.458048|
|         658|  4.8029e-01|   -1.458203|
|         659|  4.8029e-01|   -1.458348|
|         660|  4.8030e-01|   -1.458480|
|         661|  4.8033e-01|   -1.458641|
|         662|  4.8045e-01|   -1.458779|
|         663|  4.8047e-01|   -1.458935|
|         664|  4.8049e-01|   -1.459093|
|         665|  4.8057e-01|   -1.459232|
|         666|  4.8062e-01|   -1.459325|
|         667|  4.8064e-01|   -1.459506|
|         668|  4.8068e-01|   -1.459669|
|         669|  4.8073e-01|   -1.459811|
|         670|  4.8076e-01|   -1.459947|
|         671|  4.8077e-01|   -1.460095|
|         672|  4.8077e-01|   -1.460253|
|         673|  4.8077e-01|   -1.460401|
|         674|  4.8078e-01|   -1.460546|
|         675|  4.8081e-01|   -1.460683|
|         676|  4.8084e-01|   -1.460854|
|         677|  4.8085e-01|   -1.460995|
|         678|  4.8087e-01|   -1.461109|
|         679|  4.8090e-01|   -1.461286|
|         680|  4.8095e-01|   -1.461455|
|         681|  4.8104e-01|   -1.461613|
|         682|  4.8107e-01|   -1.461767|
|         683|  4.8107e-01|   -1.461921|
|         684|  4.8107e-01|   -1.462047|
|         685|  4.8110e-01|   -1.462225|
|         686|  4.8114e-01|   -1.462365|
|         687|  4.8114e-01|   -1.462537|
|         688|  4.8115e-01|   -1.462668|
|         689|  4.8114e-01|   -1.462862|
|         690|  4.8114e-01|   -1.462961|
|         691|  4.8113e-01|   -1.463136|
|         692|  4.8113e-01|   -1.463327|
|         693|  4.8113e-01|   -1.463438|
|         694|  4.8112e-01|   -1.463634|
|         695|  4.8117e-01|   -1.463798|
|         696|  4.8119e-01|   -1.463932|
|         697|  4.8123e-01|   -1.464094|
|         698|  4.8123e-01|   -1.464251|
|         699|  4.8127e-01|   -1.464421|
|         700|  4.8129e-01|   -1.464581|
+-----------------------------------------------------------------------+
|        File Writing Summary       |              Filename             |
+-----------------------------------------------------------------------+
|SU2 binary restart                 |restart_flow.dat                   |
|Paraview                           |flow.vtu                           |
|Paraview surface                   |surface_flow.vtu                   |
+-----------------------------------------------------------------------+
+--------------------------------------+
|  Inner_Iter|   Time(sec)|    rms[Rho]|
+--------------------------------------+
|         701|  4.8130e-01|   -1.464707|
|         702|  4.8132e-01|   -1.464905|
|         703|  4.8149e-01|   -1.465063|
|         704|  4.8155e-01|   -1.465209|
|         705|  4.8155e-01|   -1.465402|
|         706|  4.8155e-01|   -1.465542|
|         707|  4.8154e-01|   -1.465713|
|         708|  4.8159e-01|   -1.465871|
|         709|  4.8163e-01|   -1.466037|
|         710|  4.8164e-01|   -1.466202|
|         711|  4.8168e-01|   -1.466367|
|         712|  4.8178e-01|   -1.466533|
|         713|  4.8183e-01|   -1.466677|
|         714|  4.8198e-01|   -1.466870|
|         715|  4.8199e-01|   -1.467039|
|         716|  4.8202e-01|   -1.467202|
|         717|  4.8203e-01|   -1.467368|
|         718|  4.8204e-01|   -1.467545|
|         719|  4.8203e-01|   -1.467688|
|         720|  4.8203e-01|   -1.467872|
|         721|  4.8204e-01|   -1.468031|
|         722|  4.8205e-01|   -1.468210|
|         723|  4.8205e-01|   -1.468358|
|         724|  4.8208e-01|   -1.468560|
|         725|  4.8209e-01|   -1.468706|
|         726|  4.8210e-01|   -1.468895|
|         727|  4.8210e-01|   -1.469081|
|         728|  4.8210e-01|   -1.469247|
|         729|  4.8209e-01|   -1.469401|
|         730|  4.8208e-01|   -1.469608|
|         731|  4.8207e-01|   -1.469756|
|         732|  4.8207e-01|   -1.469938|
|         733|  4.8207e-01|   -1.470120|
|         734|  4.8207e-01|   -1.470271|
|         735|  4.8207e-01|   -1.470477|
|         736|  4.8207e-01|   -1.470655|
|         737|  4.8206e-01|   -1.470838|
|         738|  4.8205e-01|   -1.470994|
|         739|  4.8204e-01|   -1.471183|
|         740|  4.8203e-01|   -1.471326|
|         741|  4.8203e-01|   -1.471535|
|         742|  4.8202e-01|   -1.471694|
|         743|  4.8201e-01|   -1.471895|
|         744|  4.8201e-01|   -1.472049|
|         745|  4.8200e-01|   -1.472242|
|         746|  4.8199e-01|   -1.472425|
|         747|  4.8199e-01|   -1.472601|
|         748|  4.8200e-01|   -1.472782|
|         749|  4.8200e-01|   -1.472989|
|         750|  4.8200e-01|   -1.473167|
|         751|  4.8201e-01|   -1.473328|
|         752|  4.8202e-01|   -1.473531|
|         753|  4.8203e-01|   -1.473711|
|         754|  4.8205e-01|   -1.473897|
|         755|  4.8205e-01|   -1.474048|
|         756|  4.8207e-01|   -1.474241|
|         757|  4.8207e-01|   -1.474424|
|         758|  4.8207e-01|   -1.474625|
|         759|  4.8207e-01|   -1.474797|
|         760|  4.8207e-01|   -1.474978|
|         761|  4.8207e-01|   -1.475181|
|         762|  4.8207e-01|   -1.475243|
|         763|  4.8207e-01|   -1.475347|
|         764|  4.8206e-01|   -1.475659|
|         765|  4.8206e-01|   -1.475731|
|         766|  4.8206e-01|   -1.475972|
|         767|  4.8205e-01|   -1.476128|
|         768|  4.8207e-01|   -1.476477|
|         769|  4.8206e-01|   -1.476630|
|         770|  4.8206e-01|   -1.476854|
|         771|  4.8205e-01|   -1.477051|
|         772|  4.8204e-01|   -1.477232|
|         773|  4.8203e-01|   -1.477439|
|         774|  4.8203e-01|   -1.477605|
|         775|  4.8202e-01|   -1.477794|
|         776|  4.8201e-01|   -1.477989|
|         777|  4.8200e-01|   -1.478210|
|         778|  4.8200e-01|   -1.478385|
|         779|  4.8199e-01|   -1.478583|
|         780|  4.8198e-01|   -1.478751|
|         781|  4.8197e-01|   -1.478966|
|         782|  4.8198e-01|   -1.479163|
|         783|  4.8199e-01|   -1.479348|
|         784|  4.8201e-01|   -1.479537|
|         785|  4.8203e-01|   -1.479734|
|         786|  4.8203e-01|   -1.479941|
|         787|  4.8204e-01|   -1.480128|
|         788|  4.8204e-01|   -1.480310|
|         789|  4.8204e-01|   -1.480526|
|         790|  4.8204e-01|   -1.480692|
|         791|  4.8205e-01|   -1.480925|
|         792|  4.8205e-01|   -1.481099|
|         793|  4.8206e-01|   -1.481291|
|         794|  4.8211e-01|   -1.481502|
|         795|  4.8225e-01|   -1.481685|
|         796|  4.8228e-01|   -1.481896|
|         797|  4.8228e-01|   -1.482090|
|         798|  4.8227e-01|   -1.482274|
|         799|  4.8228e-01|   -1.482455|
|         800|  4.8228e-01|   -1.482653|
+-----------------------------------------------------------------------+
|        File Writing Summary       |              Filename             |
+-----------------------------------------------------------------------+
|SU2 binary restart                 |restart_flow.dat                   |
|Paraview                           |flow.vtu                           |
|Paraview surface                   |surface_flow.vtu                   |
+-----------------------------------------------------------------------+
+--------------------------------------+
|  Inner_Iter|   Time(sec)|    rms[Rho]|
+--------------------------------------+
|         801|  4.8230e-01|   -1.482864|
|         802|  4.8230e-01|   -1.483061|
|         803|  4.8229e-01|   -1.483267|
|         804|  4.8230e-01|   -1.483478|
|         805|  4.8230e-01|   -1.483667|
|         806|  4.8229e-01|   -1.483853|
|         807|  4.8229e-01|   -1.484072|
|         808|  4.8229e-01|   -1.484288|
|         809|  4.8232e-01|   -1.484484|
|         810|  4.8232e-01|   -1.484681|
|         811|  4.8232e-01|   -1.484874|
|         812|  4.8233e-01|   -1.485080|
|         813|  4.8232e-01|   -1.485275|
|         814|  4.8232e-01|   -1.485492|
|         815|  4.8232e-01|   -1.485670|
|         816|  4.8233e-01|   -1.485880|
|         817|  4.8233e-01|   -1.486091|
|         818|  4.8235e-01|   -1.486314|
|         819|  4.8234e-01|   -1.486511|
|         820|  4.8234e-01|   -1.486685|
|         821|  4.8234e-01|   -1.486912|
|         822|  4.8235e-01|   -1.487139|
|         823|  4.8236e-01|   -1.487299|
|         824|  4.8236e-01|   -1.487536|
|         825|  4.8236e-01|   -1.487747|
|         826|  4.8235e-01|   -1.487949|
|         827|  4.8234e-01|   -1.488139|
|         828|  4.8235e-01|   -1.488371|
|         829|  4.8235e-01|   -1.488580|
|         830|  4.8235e-01|   -1.488790|
|         831|  4.8235e-01|   -1.488985|
|         832|  4.8234e-01|   -1.489189|
|         833|  4.8233e-01|   -1.489417|
|         834|  4.8238e-01|   -1.489603|
|         835|  4.8238e-01|   -1.489810|
|         836|  4.8237e-01|   -1.490047|
|         837|  4.8237e-01|   -1.490278|
|         838|  4.8236e-01|   -1.490460|
|         839|  4.8235e-01|   -1.490659|
|         840|  4.8234e-01|   -1.490882|
|         841|  4.8234e-01|   -1.491112|
|         842|  4.8233e-01|   -1.491342|
|         843|  4.8233e-01|   -1.491522|
|         844|  4.8232e-01|   -1.491770|
|         845|  4.8232e-01|   -1.491964|
|         846|  4.8232e-01|   -1.492230|
|         847|  4.8233e-01|   -1.492405|
|         848|  4.8234e-01|   -1.492627|
|         849|  4.8234e-01|   -1.492868|
|         850|  4.8234e-01|   -1.493075|
|         851|  4.8234e-01|   -1.493299|
|         852|  4.8234e-01|   -1.493508|
|         853|  4.8234e-01|   -1.493728|
|         854|  4.8234e-01|   -1.493986|
|         855|  4.8233e-01|   -1.494182|
|         856|  4.8233e-01|   -1.494411|
|         857|  4.8233e-01|   -1.494628|
|         858|  4.8233e-01|   -1.494852|
|         859|  4.8233e-01|   -1.495071|
|         860|  4.8234e-01|   -1.495314|
|         861|  4.8234e-01|   -1.495512|
|         862|  4.8233e-01|   -1.495745|
|         863|  4.8232e-01|   -1.495986|
|         864|  4.8232e-01|   -1.496175|
|         865|  4.8231e-01|   -1.496414|
|         866|  4.8230e-01|   -1.496638|
|         867|  4.8231e-01|   -1.496851|
|         868|  4.8230e-01|   -1.497067|
|         869|  4.8230e-01|   -1.497307|
|         870|  4.8229e-01|   -1.497532|
|         871|  4.8229e-01|   -1.497756|
|         872|  4.8228e-01|   -1.497954|
|         873|  4.8228e-01|   -1.498193|
|         874|  4.8228e-01|   -1.498431|
|         875|  4.8227e-01|   -1.498662|
|         876|  4.8226e-01|   -1.498912|
|         877|  4.8226e-01|   -1.499131|
|         878|  4.8225e-01|   -1.499359|
|         879|  4.8225e-01|   -1.499587|
|         880|  4.8225e-01|   -1.499829|
|         881|  4.8224e-01|   -1.500065|
|         882|  4.8224e-01|   -1.500304|
|         883|  4.8224e-01|   -1.500546|
|         884|  4.8225e-01|   -1.500781|
|         885|  4.8225e-01|   -1.501007|
|         886|  4.8224e-01|   -1.501248|
|         887|  4.8225e-01|   -1.501465|
|         888|  4.8224e-01|   -1.501719|
|         889|  4.8225e-01|   -1.501968|
|         890|  4.8225e-01|   -1.502184|
|         891|  4.8225e-01|   -1.502439|
|         892|  4.8225e-01|   -1.502691|
|         893|  4.8226e-01|   -1.502944|
|         894|  4.8225e-01|   -1.503169|
|         895|  4.8225e-01|   -1.503414|
|         896|  4.8224e-01|   -1.503648|
|         897|  4.8224e-01|   -1.503898|
|         898|  4.8224e-01|   -1.504139|
|         899|  4.8225e-01|   -1.504404|
|         900|  4.8225e-01|   -1.504619|
+-----------------------------------------------------------------------+
|        File Writing Summary       |              Filename             |
+-----------------------------------------------------------------------+
|SU2 binary restart                 |restart_flow.dat                   |
|Paraview                           |flow.vtu                           |
|Paraview surface                   |surface_flow.vtu                   |
+-----------------------------------------------------------------------+
+--------------------------------------+
|  Inner_Iter|   Time(sec)|    rms[Rho]|
+--------------------------------------+
|         901|  4.8226e-01|   -1.504857|
|         902|  4.8226e-01|   -1.505111|
|         903|  4.8226e-01|   -1.505379|
|         904|  4.8226e-01|   -1.505599|
|         905|  4.8226e-01|   -1.505858|
|         906|  4.8226e-01|   -1.506091|
|         907|  4.8225e-01|   -1.506363|
|         908|  4.8227e-01|   -1.506575|
|         909|  4.8227e-01|   -1.506846|
|         910|  4.8227e-01|   -1.507077|
|         911|  4.8229e-01|   -1.507334|
|         912|  4.8229e-01|   -1.507595|
|         913|  4.8231e-01|   -1.507846|
|         914|  4.8232e-01|   -1.508055|
|         915|  4.8232e-01|   -1.508349|
|         916|  4.8232e-01|   -1.508594|
|         917|  4.8232e-01|   -1.508851|
|         918|  4.8231e-01|   -1.509078|
|         919|  4.8231e-01|   -1.509362|
|         920|  4.8230e-01|   -1.509601|
|         921|  4.8230e-01|   -1.509884|
|         922|  4.8229e-01|   -1.510108|
|         923|  4.8228e-01|   -1.510387|
|         924|  4.8227e-01|   -1.510625|
|         925|  4.8229e-01|   -1.510881|
|         926|  4.8228e-01|   -1.511144|
|         927|  4.8228e-01|   -1.511395|
|         928|  4.8227e-01|   -1.511686|
|         929|  4.8226e-01|   -1.511880|
|         930|  4.8225e-01|   -1.512162|
|         931|  4.8224e-01|   -1.512429|
|         932|  4.8224e-01|   -1.512689|
|         933|  4.8224e-01|   -1.512939|
|         934|  4.8225e-01|   -1.513206|
|         935|  4.8225e-01|   -1.513479|
|         936|  4.8224e-01|   -1.513737|
|         937|  4.8223e-01|   -1.513970|
|         938|  4.8222e-01|   -1.514230|
|         939|  4.8221e-01|   -1.514540|
|         940|  4.8220e-01|   -1.514778|
|         941|  4.8219e-01|   -1.515047|
|         942|  4.8218e-01|   -1.515308|
|         943|  4.8217e-01|   -1.515570|
|         944|  4.8216e-01|   -1.515853|
|         945|  4.8217e-01|   -1.516088|
|         946|  4.8220e-01|   -1.516362|
|         947|  4.8225e-01|   -1.516629|
|         948|  4.8228e-01|   -1.516895|
|         949|  4.8233e-01|   -1.517161|
|         950|  4.8236e-01|   -1.517424|
|         951|  4.8238e-01|   -1.517696|
|         952|  4.8244e-01|   -1.517972|
|         953|  4.8245e-01|   -1.518234|
|         954|  4.8245e-01|   -1.518503|
|         955|  4.8245e-01|   -1.518784|
|         956|  4.8245e-01|   -1.519064|
|         957|  4.8244e-01|   -1.519317|
|         958|  4.8245e-01|   -1.519583|
|         959|  4.8247e-01|   -1.519882|
|         960|  4.8249e-01|   -1.520137|
|         961|  4.8253e-01|   -1.520421|
|         962|  4.8254e-01|   -1.520686|
|         963|  4.8259e-01|   -1.520979|
|         964|  4.8259e-01|   -1.521248|
|         965|  4.8260e-01|   -1.521514|
|         966|  4.8261e-01|   -1.521763|
|         967|  4.8262e-01|   -1.522103|
|         968|  4.8262e-01|   -1.522348|
|         969|  4.8261e-01|   -1.522632|
|         970|  4.8261e-01|   -1.522895|
|         971|  4.8261e-01|   -1.523177|
|         972|  4.8265e-01|   -1.523453|
|         973|  4.8264e-01|   -1.523722|
|         974|  4.8264e-01|   -1.524033|
|         975|  4.8264e-01|   -1.524310|
|         976|  4.8265e-01|   -1.524606|
|         977|  4.8265e-01|   -1.524867|
|         978|  4.8268e-01|   -1.525172|
|         979|  4.8270e-01|   -1.525414|
|         980|  4.8270e-01|   -1.525715|
|         981|  4.8275e-01|   -1.526010|
|         982|  4.8281e-01|   -1.526299|
|         983|  4.8282e-01|   -1.526580|
|         984|  4.8282e-01|   -1.526862|
|         985|  4.8282e-01|   -1.527162|
|         986|  4.8282e-01|   -1.527463|
|         987|  4.8281e-01|   -1.526955|
|         988|  4.8281e-01|   -1.528016|
|         989|  4.8283e-01|   -1.528279|
|         990|  4.8283e-01|   -1.528597|
|         991|  4.8283e-01|   -1.528892|
|         992|  4.8282e-01|   -1.529167|
|         993|  4.8281e-01|   -1.529456|
|         994|  4.8281e-01|   -1.529756|
|         995|  4.8281e-01|   -1.530051|
|         996|  4.8280e-01|   -1.530338|
|         997|  4.8280e-01|   -1.530640|
|         998|  4.8280e-01|   -1.530931|
|         999|  4.8281e-01|   -1.531166|
|        1000|  4.8280e-01|   -1.531514|
+-----------------------------------------------------------------------+
|        File Writing Summary       |              Filename             |
+-----------------------------------------------------------------------+
|SU2 binary restart                 |restart_flow.dat                   |
|Paraview                           |flow.vtu                           |
|Paraview surface                   |surface_flow.vtu                   |
+-----------------------------------------------------------------------+
+--------------------------------------+
|  Inner_Iter|   Time(sec)|    rms[Rho]|
+--------------------------------------+
|        1001|  4.8281e-01|   -1.531786|
|        1002|  4.8280e-01|   -1.532089|
|        1003|  4.8280e-01|   -1.532404|
|        1004|  4.8279e-01|   -1.532669|
|        1005|  4.8279e-01|   -1.532982|
|        1006|  4.8279e-01|   -1.533291|
|        1007|  4.8279e-01|   -1.533568|
|        1008|  4.8278e-01|   -1.533860|
|        1009|  4.8278e-01|   -1.534180|
|        1010|  4.8278e-01|   -1.534479|
|        1011|  4.8277e-01|   -1.534775|
|        1012|  4.8277e-01|   -1.535081|
|        1013|  4.8277e-01|   -1.535386|
|        1014|  4.8277e-01|   -1.535702|
|        1015|  4.8276e-01|   -1.535977|
|        1016|  4.8276e-01|   -1.536281|
|        1017|  4.8275e-01|   -1.536595|
|        1018|  4.8275e-01|   -1.536912|
|        1019|  4.8274e-01|   -1.537175|
|        1020|  4.8273e-01|   -1.537515|
|        1021|  4.8273e-01|   -1.537830|
|        1022|  4.8273e-01|   -1.538128|
|        1023|  4.8272e-01|   -1.538419|
|        1024|  4.8271e-01|   -1.538722|
|        1025|  4.8271e-01|   -1.539032|
|        1026|  4.8270e-01|   -1.539350|
|        1027|  4.8270e-01|   -1.539651|
|        1028|  4.8270e-01|   -1.539963|
|        1029|  4.8269e-01|   -1.540264|
|        1030|  4.8269e-01|   -1.540549|
|        1031|  4.8268e-01|   -1.540895|
|        1032|  4.8269e-01|   -1.541223|
|        1033|  4.8269e-01|   -1.541495|
|        1034|  4.8268e-01|   -1.541819|
|        1035|  4.8268e-01|   -1.542139|
|        1036|  4.8270e-01|   -1.542414|
|        1037|  4.8274e-01|   -1.542786|
|        1038|  4.8277e-01|   -1.543032|
|        1039|  4.8282e-01|   -1.543378|
|        1040|  4.8283e-01|   -1.543681|
|        1041|  4.8284e-01|   -1.544023|
|        1042|  4.8285e-01|   -1.544302|
|        1043|  4.8287e-01|   -1.544647|
|        1044|  4.8291e-01|   -1.544942|
|        1045|  4.8301e-01|   -1.545256|
|        1046|  4.8316e-01|   -1.545552|
|        1047|  4.8319e-01|   -1.545852|
|        1048|  4.8321e-01|   -1.546204|
|        1049|  4.8321e-01|   -1.546498|
|        1050|  4.8321e-01|   -1.546821|
|        1051|  4.8321e-01|   -1.547152|
|        1052|  4.8322e-01|   -1.547453|
|        1053|  4.8322e-01|   -1.547780|
|        1054|  4.8322e-01|   -1.548103|
|        1055|  4.8323e-01|   -1.548408|
|        1056|  4.8323e-01|   -1.548746|
|        1057|  4.8323e-01|   -1.549019|
|        1058|  4.8322e-01|   -1.549351|
|        1059|  4.8322e-01|   -1.549680|
|        1060|  4.8322e-01|   -1.549990|
|        1061|  4.8321e-01|   -1.550281|
|        1062|  4.8321e-01|   -1.550642|
|        1063|  4.8320e-01|   -1.550922|
|        1064|  4.8321e-01|   -1.551283|
|        1065|  4.8322e-01|   -1.551603|
|        1066|  4.8322e-01|   -1.551888|
|        1067|  4.8322e-01|   -1.552232|
|        1068|  4.8323e-01|   -1.552545|
|        1069|  4.8324e-01|   -1.552854|
|        1070|  4.8325e-01|   -1.553137|
|        1071|  4.8325e-01|   -1.553479|
|        1072|  4.8326e-01|   -1.553775|
|        1073|  4.8326e-01|   -1.554129|
|        1074|  4.8327e-01|   -1.554451|
|        1075|  4.8327e-01|   -1.554766|
|        1076|  4.8328e-01|   -1.555054|
|        1077|  4.8329e-01|   -1.555424|
|        1078|  4.8329e-01|   -1.555700|
|        1079|  4.8329e-01|   -1.555988|
|        1080|  4.8329e-01|   -1.556316|
|        1081|  4.8329e-01|   -1.556636|
|        1082|  4.8329e-01|   -1.556956|
|        1083|  4.8329e-01|   -1.557265|
|        1084|  4.8328e-01|   -1.557598|
|        1085|  4.8328e-01|   -1.557926|
|        1086|  4.8329e-01|   -1.558249|
|        1087|  4.8329e-01|   -1.558552|
|        1088|  4.8329e-01|   -1.558888|
|        1089|  4.8330e-01|   -1.559190|
|        1090|  4.8333e-01|   -1.559488|
|        1091|  4.8335e-01|   -1.559818|
|        1092|  4.8335e-01|   -1.560133|
|        1093|  4.8335e-01|   -1.560446|
|        1094|  4.8336e-01|   -1.560734|
|        1095|  4.8336e-01|   -1.561130|
|        1096|  4.8337e-01|   -1.561399|
|        1097|  4.8339e-01|   -1.561735|
|        1098|  4.8339e-01|   -1.561647|
|        1099|  4.8339e-01|   -1.562392|
|        1100|  4.8338e-01|   -1.562690|
+-----------------------------------------------------------------------+
|        File Writing Summary       |              Filename             |
+-----------------------------------------------------------------------+
|SU2 binary restart                 |restart_flow.dat                   |
|Paraview                           |flow.vtu                           |
|Paraview surface                   |surface_flow.vtu                   |
+-----------------------------------------------------------------------+
+--------------------------------------+
|  Inner_Iter|   Time(sec)|    rms[Rho]|
+--------------------------------------+
|        1101|  4.8338e-01|   -1.562975|
|        1102|  4.8338e-01|   -1.563333|
|        1103|  4.8338e-01|   -1.563632|
|        1104|  4.8341e-01|   -1.563934|
|        1105|  4.8341e-01|   -1.564259|
|        1106|  4.8341e-01|   -1.564606|
|        1107|  4.8341e-01|   -1.564864|
|        1108|  4.8341e-01|   -1.565202|
|        1109|  4.8343e-01|   -1.565528|
|        1110|  4.8356e-01|   -1.565816|
|        1111|  4.8358e-01|   -1.566166|
|        1112|  4.8362e-01|   -1.566485|
|        1113|  4.8363e-01|   -1.566743|
|        1114|  4.8362e-01|   -1.567123|
|        1115|  4.8367e-01|   -1.567391|
|        1116|  4.8378e-01|   -1.567684|
|        1117|  4.8378e-01|   -1.568036|
|        1118|  4.8383e-01|   -1.568305|
|        1119|  4.8386e-01|   -1.568643|
|        1120|  4.8391e-01|   -1.568951|
|        1121|  4.8391e-01|   -1.569260|
|        1122|  4.8390e-01|   -1.569549|
|        1123|  4.8391e-01|   -1.569799|
|        1124|  4.8393e-01|   -1.570186|
|        1125|  4.8397e-01|   -1.570536|
|        1126|  4.8401e-01|   -1.570830|
|        1127|  4.8414e-01|   -1.571092|
|        1128|  4.8416e-01|   -1.571449|
|        1129|  4.8416e-01|   -1.571753|
|        1130|  4.8416e-01|   -1.572056|
|        1131|  4.8416e-01|   -1.572329|
|        1132|  4.8416e-01|   -1.572641|
|        1133|  4.8415e-01|   -1.572960|
|        1134|  4.8415e-01|   -1.573241|
|        1135|  4.8415e-01|   -1.573564|
|        1136|  4.8414e-01|   -1.573838|
|        1137|  4.8414e-01|   -1.574173|
|        1138|  4.8416e-01|   -1.574454|
|        1139|  4.8416e-01|   -1.574787|
|        1140|  4.8415e-01|   -1.575120|
|        1141|  4.8415e-01|   -1.575377|
|        1142|  4.8414e-01|   -1.575650|
|        1143|  4.8415e-01|   -1.576031|
|        1144|  4.8415e-01|   -1.576324|
|        1145|  4.8414e-01|   -1.576592|
|        1146|  4.8416e-01|   -1.576911|
|        1147|  4.8416e-01|   -1.577229|
|        1148|  4.8415e-01|   -1.577442|
|        1149|  4.8415e-01|   -1.577776|
|        1150|  4.8415e-01|   -1.578112|
|        1151|  4.8414e-01|   -1.578351|
|        1152|  4.8413e-01|   -1.578674|
|        1153|  4.8413e-01|   -1.579022|
|        1154|  4.8414e-01|   -1.578520|
|        1155|  4.8414e-01|   -1.579532|
|        1156|  4.8414e-01|   -1.579859|
|        1157|  4.8414e-01|   -1.580175|
|        1158|  4.8414e-01|   -1.580464|
|        1159|  4.8415e-01|   -1.580752|
|        1160|  4.8415e-01|   -1.581037|
|        1161|  4.8417e-01|   -1.581373|
|        1162|  4.8416e-01|   -1.581659|
|        1163|  4.8415e-01|   -1.581906|
|        1164|  4.8415e-01|   -1.582158|
|        1165|  4.8415e-01|   -1.582485|
|        1166|  4.8414e-01|   -1.582770|
|        1167|  4.8414e-01|   -1.583092|
|        1168|  4.8414e-01|   -1.583322|
|        1169|  4.8414e-01|   -1.583617|
|        1170|  4.8414e-01|   -1.583856|
|        1171|  4.8415e-01|   -1.583877|
|        1172|  4.8415e-01|   -1.584522|
|        1173|  4.8415e-01|   -1.584764|
|        1174|  4.8415e-01|   -1.584967|
|        1175|  4.8416e-01|   -1.585354|
|        1176|  4.8416e-01|   -1.585643|
|        1177|  4.8416e-01|   -1.585923|
|        1178|  4.8416e-01|   -1.586122|
|        1179|  4.8417e-01|   -1.586483|
|        1180|  4.8417e-01|   -1.586744|
|        1181|  4.8417e-01|   -1.587038|
|        1182|  4.8418e-01|   -1.587227|
|        1183|  4.8421e-01|   -1.587533|
|        1184|  4.8421e-01|   -1.587827|
|        1185|  4.8422e-01|   -1.588042|
|        1186|  4.8422e-01|   -1.588344|
|        1187|  4.8424e-01|   -1.588614|
|        1188|  4.8424e-01|   -1.588913|
|        1189|  4.8425e-01|   -1.589166|
|        1190|  4.8427e-01|   -1.589429|
|        1191|  4.8429e-01|   -1.589732|
|        1192|  4.8433e-01|   -1.590015|
|        1193|  4.8435e-01|   -1.590282|
|        1194|  4.8442e-01|   -1.590569|
|        1195|  4.8441e-01|   -1.590872|
|        1196|  4.8441e-01|   -1.591117|
|        1197|  4.8441e-01|   -1.591404|
|        1198|  4.8441e-01|   -1.591712|
|        1199|  4.8441e-01|   -1.592004|
|        1200|  4.8441e-01|   -1.592293|
+-----------------------------------------------------------------------+
|        File Writing Summary       |              Filename             |
+-----------------------------------------------------------------------+
|SU2 binary restart                 |restart_flow.dat                   |
|Paraview                           |flow.vtu                           |
|Paraview surface                   |surface_flow.vtu                   |
+-----------------------------------------------------------------------+
+--------------------------------------+
|  Inner_Iter|   Time(sec)|    rms[Rho]|
+--------------------------------------+
|        1201|  4.8441e-01|   -1.592553|
|        1202|  4.8441e-01|   -1.592825|
|        1203|  4.8440e-01|   -1.593105|
|        1204|  4.8439e-01|   -1.593387|
|        1205|  4.8439e-01|   -1.593588|
|        1206|  4.8439e-01|   -1.593904|
|        1207|  4.8438e-01|   -1.594149|
|        1208|  4.8438e-01|   -1.594460|
|        1209|  4.8438e-01|   -1.594735|
|        1210|  4.8438e-01|   -1.595015|
|        1211|  4.8438e-01|   -1.595280|
|        1212|  4.8438e-01|   -1.595532|
|        1213|  4.8438e-01|   -1.595816|
|        1214|  4.8438e-01|   -1.596059|
|        1215|  4.8437e-01|   -1.596120|
|        1216|  4.8437e-01|   -1.596502|
|        1217|  4.8437e-01|   -1.596487|
|        1218|  4.8437e-01|   -1.597053|
|        1219|  4.8438e-01|   -1.597318|
|        1220|  4.8439e-01|   -1.597691|
|        1221|  4.8439e-01|   -1.597914|
|        1222|  4.8439e-01|   -1.598195|
|        1223|  4.8439e-01|   -1.598458|
|        1224|  4.8439e-01|   -1.598728|
|        1225|  4.8438e-01|   -1.598970|
|        1226|  4.8439e-01|   -1.599236|
|        1227|  4.8440e-01|   -1.599483|
|        1228|  4.8440e-01|   -1.599751|
|        1229|  4.8440e-01|   -1.599970|
|        1230|  4.8440e-01|   -1.600157|
|        1231|  4.8440e-01|   -1.600472|
|        1232|  4.8439e-01|   -1.600727|
|        1233|  4.8439e-01|   -1.600952|
|        1234|  4.8440e-01|   -1.601137|
|        1235|  4.8440e-01|   -1.601476|
|        1236|  4.8440e-01|   -1.601742|
|        1237|  4.8440e-01|   -1.601996|
|        1238|  4.8440e-01|   -1.602314|
|        1239|  4.8440e-01|   -1.602573|
|        1240|  4.8440e-01|   -1.602836|
|        1241|  4.8441e-01|   -1.603083|
|        1242|  4.8440e-01|   -1.603288|
|        1243|  4.8441e-01|   -1.603579|
|        1244|  4.8441e-01|   -1.603866|
|        1245|  4.8442e-01|   -1.604078|
|        1246|  4.8443e-01|   -1.604392|
|        1247|  4.8446e-01|   -1.604610|
|        1248|  4.8451e-01|   -1.604916|
|        1249|  4.8453e-01|   -1.605161|
|        1250|  4.8456e-01|   -1.605439|
|        1251|  4.8456e-01|   -1.605699|
|        1252|  4.8456e-01|   -1.605983|
|        1253|  4.8456e-01|   -1.606150|
|        1254|  4.8456e-01|   -1.606454|
|        1255|  4.8457e-01|   -1.606706|
|        1256|  4.8457e-01|   -1.606972|
|        1257|  4.8458e-01|   -1.607217|
|        1258|  4.8459e-01|   -1.607475|
|        1259|  4.8461e-01|   -1.607730|
|        1260|  4.8463e-01|   -1.608035|
|        1261|  4.8463e-01|   -1.608319|
|        1262|  4.8462e-01|   -1.608539|
|        1263|  4.8462e-01|   -1.608804|
|        1264|  4.8462e-01|   -1.609075|
|        1265|  4.8462e-01|   -1.609290|
|        1266|  4.8462e-01|   -1.609459|
|        1267|  4.8462e-01|   -1.609654|
|        1268|  4.8462e-01|   -1.609965|
|        1269|  4.8462e-01|   -1.610206|
|        1270|  4.8461e-01|   -1.610483|
|        1271|  4.8461e-01|   -1.610828|
|        1272|  4.8460e-01|   -1.611104|
|        1273|  4.8460e-01|   -1.611370|
|        1274|  4.8460e-01|   -1.611567|
|        1275|  4.8460e-01|   -1.611857|
|        1276|  4.8459e-01|   -1.612094|
|        1277|  4.8459e-01|   -1.612401|
|        1278|  4.8459e-01|   -1.612635|
|        1279|  4.8458e-01|   -1.612900|
|        1280|  4.8458e-01|   -1.613136|
|        1281|  4.8457e-01|   -1.613447|
|        1282|  4.8457e-01|   -1.613594|
|        1283|  4.8456e-01|   -1.613917|
|        1284|  4.8456e-01|   -1.614136|
|        1285|  4.8455e-01|   -1.614406|
|        1286|  4.8455e-01|   -1.614655|
|        1287|  4.8454e-01|   -1.614897|
|        1288|  4.8454e-01|   -1.615168|
|        1289|  4.8453e-01|   -1.615507|
|        1290|  4.8453e-01|   -1.615720|
|        1291|  4.8452e-01|   -1.615907|
|        1292|  4.8452e-01|   -1.616206|
|        1293|  4.8452e-01|   -1.616504|
|        1294|  4.8452e-01|   -1.616740|
|        1295|  4.8451e-01|   -1.617008|
|        1296|  4.8450e-01|   -1.617261|
|        1297|  4.8449e-01|   -1.617498|
|        1298|  4.8448e-01|   -1.617763|
|        1299|  4.8447e-01|   -1.618045|
|        1300|  4.8447e-01|   -1.618331|
+-----------------------------------------------------------------------+
|        File Writing Summary       |              Filename             |
+-----------------------------------------------------------------------+
|SU2 binary restart                 |restart_flow.dat                   |
|Paraview                           |flow.vtu                           |
|Paraview surface                   |surface_flow.vtu                   |
+-----------------------------------------------------------------------+
+--------------------------------------+
|  Inner_Iter|   Time(sec)|    rms[Rho]|
+--------------------------------------+
|        1301|  4.8447e-01|   -1.618596|
|        1302|  4.8447e-01|   -1.618851|
|        1303|  4.8446e-01|   -1.619130|
|        1304|  4.8445e-01|   -1.619384|
|        1305|  4.8445e-01|   -1.619654|
|        1306|  4.8444e-01|   -1.619864|
|        1307|  4.8444e-01|   -1.620130|
|        1308|  4.8443e-01|   -1.620364|
|        1309|  4.8442e-01|   -1.620673|
|        1310|  4.8442e-01|   -1.620843|
|        1311|  4.8441e-01|   -1.621072|
|        1312|  4.8441e-01|   -1.621411|
|        1313|  4.8441e-01|   -1.621564|
|        1314|  4.8442e-01|   -1.621928|
|        1315|  4.8442e-01|   -1.622249|
|        1316|  4.8441e-01|   -1.622522|
|        1317|  4.8441e-01|   -1.622780|
|        1318|  4.8440e-01|   -1.623051|
|        1319|  4.8440e-01|   -1.623304|
|        1320|  4.8439e-01|   -1.623540|
|        1321|  4.8439e-01|   -1.623859|
|        1322|  4.8438e-01|   -1.624091|
|        1323|  4.8437e-01|   -1.624349|
|        1324|  4.8437e-01|   -1.624599|
|        1325|  4.8437e-01|   -1.624939|
