
-------------------------------------------------------------------------
|    ___ _   _ ___                                                      |
|   / __| | | |_  )   Release 7.5.1 "Blackbird"                         |
|   \__ \ |_| |/ /                                                      |
|   |___/\___//___|   Suite (Computational Fluid Dynamics Code)         |
|                                                                       |
-------------------------------------------------------------------------
| SU2 Project Website: https://su2code.github.io                        |
|                                                                       |
| The SU2 Project is maintained by the SU2 Foundation                   |
| (http://su2foundation.org)                                            |
-------------------------------------------------------------------------
| Copyright 2012-2023, SU2 Contributors                                 |
|                                                                       |
| SU2 is free software; you can redistribute it and/or                  |
| modify it under the terms of the GNU Lesser General Public            |
| License as published by the Free Software Foundation; either          |
| version 2.1 of the License, or (at your option) any later version.    |
|                                                                       |
| SU2 is distributed in the hope that it will be useful,                |
| but WITHOUT ANY WARRANTY; without even the implied warranty of        |
| MERCHANTABILITY or FITNESS FOR A PARTICULAR PURPOSE. See the GNU      |
| Lesser General Public License for more details.                       |
|                                                                       |
| You should have received a copy of the GNU Lesser General Public      |
| License along with SU2. If not, see <http://www.gnu.org/licenses/>.   |
-------------------------------------------------------------------------

Parsing config file for zone 0

----------------- Physical Case Definition ( Zone 0 ) -------------------
Compressible Euler equations.
Mach number: 1.7.
Angle of attack (AoA): 0 deg, and angle of sideslip (AoS): 0 deg.
Reading and writing binary SU2 native restart files.
Read flow solution from: solution_flow.dat.
Dimensional simulation.
The reference area is 1 m^2.
The semi-span will be computed using the max y(3D) value.
The reference length is 1 m.
Input mesh file name: mesh4.su2

--------------- Space Numerical Integration ( Zone 0 ) ------------------
Roe (with entropy fix = 0.001) solver for the flow inviscid terms.
Standard Roe without low-dissipation function.
Second order integration in space, with slope limiter.
No slope-limiting method. 
Gradient for upwind reconstruction: inverse-distance weighted Least-Squares.
Gradient for viscous and source terms: inverse-distance weighted Least-Squares.

--------------- Time Numerical Integration  ( Zone 0 ) ------------------
Local time stepping (steady state simulation).
Euler implicit method for the flow equations.
FGMRES is used for solving the linear system.
Using a ILU(0) preconditioning.
Convergence criteria of the linear solver: 1e-06.
Max number of linear iterations: 20.
CFL adaptation. Factor down: 0.1, factor up: 2,
                lower limit: 0.1, upper limit: 100,
                acceptable linear residual: 0.001.
Courant-Friedrichs-Lewy number:      0.5

------------------ Convergence Criteria  ( Zone 0 ) ---------------------
Maximum number of solver subiterations: 1000.
Begin convergence monitoring at iteration 10.
Residual minimum value: 1e-20.
Cauchy series min. value: 1e-10.
Number of Cauchy elements: 100.
Begin windowed time average at iteration 0.

-------------------- Output Information ( Zone 0 ) ----------------------
File writing frequency: 
+------------------------------------+
|                     File| Frequency|
+------------------------------------+
|                  RESTART|       100|
|                 PARAVIEW|       100|
|         SURFACE_PARAVIEW|       100|
+------------------------------------+
Writing the convergence history file every 1 inner iterations.
Writing the screen convergence history every 1 inner iterations.
The tabular file format is CSV (.csv).
Convergence history file name: history.
Forces breakdown file name: forces_breakdown.dat.
Surface file name: surface_flow.
Volume file name: flow.
Restart file name: restart_flow.dat.

------------- Config File Boundary Information ( Zone 0 ) ---------------
+-----------------------------------------------------------------------+
|                        Marker Type|                        Marker Name|
+-----------------------------------------------------------------------+
|                         Euler wall|                                  4|
|                                   |                                  5|
+-----------------------------------------------------------------------+
|                     Symmetry plane|                                  2|
+-----------------------------------------------------------------------+
|                   Riemann boundary|                                  1|
|                                   |                                  3|
+-----------------------------------------------------------------------+

-------------------- Output Preprocessing ( Zone 0 ) --------------------

WARNING: SURFACE_PRESSURE_DROP can only be computed for at least 2 surfaces (outlet, inlet, ...)

Screen output fields: INNER_ITER, WALL_TIME, RMS_DENSITY
History output group(s): ITER, RMS_RES
Convergence field(s): RMS_DENSITY
Warning: No (valid) fields chosen for time convergence monitoring. Time convergence monitoring inactive.
Volume output fields: COORDINATES, SOLUTION, PRIMITIVE

------------------- Geometry Preprocessing ( Zone 0 ) -------------------
Two dimensional problem.
14892 grid points before partitioning.
29547 volume elements before partitioning.
5 surface markers.
40 boundary elements in index 0 (Marker = 1).
50 boundary elements in index 1 (Marker = 2).
74 boundary elements in index 2 (Marker = 3).
50 boundary elements in index 3 (Marker = 4).
21 boundary elements in index 4 (Marker = 5).
Executing the partitioning functions.
Building the graph adjacency structure.
Calling ParMETIS... graph partitioning complete (378 edge cuts).
Distributing ParMETIS coloring.
Rebalancing vertices.
Rebalancing volume element connectivity.
Rebalancing markers and surface elements.
15276 vertices including ghost points. 
29925 interior elements including halo cells. 
29925 triangles.
Establishing MPI communication patterns.
Setting point connectivity.
Renumbering points (Reverse Cuthill McKee Ordering).
Recomputing point connectivity.
Setting element connectivity.
Checking the numerical grid orientation.
All volume elements are correctly orientend.
There has been a re-orientation of 238 LINE surface elements.
Identifying edges and vertices.
Setting the control volume structure.
Area of the computational grid: 0.907033.
Searching for the closest normal neighbors to the surfaces.
Storing a mapping from global to local point index.
Compute the surface curvature.
Max K: 223.734. Mean K: 4.3029. Standard deviation K: 24.0334.
Checking for periodicity.
Computing mesh quality statistics for the dual control volumes.
+--------------------------------------------------------------+
|           Mesh Quality Metric|        Minimum|        Maximum|
+--------------------------------------------------------------+
|    Orthogonality Angle (deg.)|         50.486|        89.9979|
|     CV Face Area Aspect Ratio|        1.00027|        7.72288|
|           CV Sub-Volume Ratio|              1|        9.54814|
+--------------------------------------------------------------+
Finding max control volume width.
Communicating number of neighbors.
Wetted area = 0 m.
Area projection in the x-plane = 0 m, y-plane = 0 m.
Max. coordinate in the x-direction = -1e+10 m, y-direction = -1e+10 m.
Min. coordinate in the x-direction = 1e+10 m, y-direction = 1e+10 m.
Checking if Euler & Symmetry markers are straight/plane:
Boundary marker 4 is a single straight.
Boundary marker 5 is a single straight.
Boundary marker 2 is a single straight.
Computing wall distances.

-------------------- Solver Preprocessing ( Zone 0 ) --------------------
Inviscid flow: Computing density based on free-stream
temperature and pressure using the ideal gas law.
Force coefficients computed using free-stream values.

-- Models:
+------------------------------------------------------------------------------+
|          Viscosity Model|        Conductivity Model|              Fluid Model|
+------------------------------------------------------------------------------+
|                        -|                         -|                   PR_GAS|
+------------------------------------------------------------------------------+
-- Fluid properties:
+------------------------------------------------------------------------------+
|                  Name|    Dim. value|    Ref. value|      Unit|Non-dim. value|
+------------------------------------------------------------------------------+
|          Gas Constant|        35.152|             1|  N.m/kg.K|        35.152|
|      Spec. Heat Ratio|             -|             -|         -|        1.0125|
|     Critical Pressure|     1.415e+06|             1|          |     1.415e+06|
|  Critical Temperature|        564.09|             1|         K|        564.09|
+------------------------------------------------------------------------------+
-- Initial and free-stream conditions:
+------------------------------------------------------------------------------+
|                  Name|    Dim. value|    Ref. value|      Unit|Non-dim. value|
+------------------------------------------------------------------------------+
|       Static Pressure|    1.4999e+06|             1|        Pa|    1.4999e+06|
|               Density|       202.888|             1|    kg/m^3|       202.888|
|           Temperature|       569.364|             1|         K|       569.364|
|          Total Energy|   1.55884e+06|             1|   m^2/s^2|   1.55884e+06|
|            Velocity-X|       80.3857|             1|       m/s|       80.3857|
|            Velocity-Y|             0|             1|       m/s|             0|
|    Velocity Magnitude|       80.3857|             1|       m/s|       80.3857|
+------------------------------------------------------------------------------+
|           Mach Number|             -|             -|         -|           1.7|
+------------------------------------------------------------------------------+
Initialize Jacobian structure (Euler). MG level: 0.

------------------- Numerics Preprocessing ( Zone 0 ) -------------------

----------------- Integration Preprocessing ( Zone 0 ) ------------------

------------------- Iteration Preprocessing ( Zone 0 ) ------------------
Euler/Navier-Stokes/RANS fluid iteration.

------------------------------ Begin Solver -----------------------------

Simulation Run using the Single-zone Driver
+--------------------------------------+
|  Inner_Iter|   Time(sec)|    rms[Rho]|
+--------------------------------------+
|           0|  3.2726e-02|   -1.089546|
|           1|  3.3118e-02|   -1.125740|
|           2|  3.3642e-02|   -1.180740|
|           3|  3.4618e-02|   -1.252767|
|           4|  3.6248e-02|   -1.333311|
|           5|  3.9106e-02|   -1.409496|
|           6|  4.2903e-02|   -1.467496|
|           7|  4.6236e-02|   -1.501501|
|           8|  4.9178e-02|   -1.530826|
|           9|  5.2140e-02|   -1.583590|
|          10|  5.3639e-02|   -1.661642|
|          11|  5.5175e-02|   -1.731794|
|          12|  5.6421e-02|   -1.795094|
|          13|  5.7527e-02|   -1.854717|
|          14|  5.8466e-02|   -1.904153|
|          15|  6.0211e-02|   -1.944891|
|          16|  6.1208e-02|   -1.983379|
|          17|  6.1734e-02|   -2.022372|
|          18|  6.2197e-02|   -2.062401|
|          19|  6.2228e-02|   -2.103986|
|          20|  6.2223e-02|   -2.147491|
|          21|  6.2240e-02|   -2.192852|
|          22|  6.2264e-02|   -2.239622|
|          23|  6.2248e-02|   -2.287136|
|          24|  6.2234e-02|   -2.334814|
|          25|  6.2220e-02|   -2.382400|
|          26|  6.2214e-02|   -2.429979|
|          27|  6.2205e-02|   -2.477868|
|          28|  6.2194e-02|   -2.526490|
|          29|  6.2188e-02|   -2.576224|
|          30|  6.2217e-02|   -2.627301|
|          31|  6.2251e-02|   -2.679756|
|          32|  6.3122e-02|   -2.733441|
|          33|  6.3256e-02|   -2.788061|
|          34|  6.3285e-02|   -2.843239|
|          35|  6.3325e-02|   -2.898578|
|          36|  6.3348e-02|   -2.953715|
|          37|  6.3468e-02|   -3.008348|
|          38|  6.3531e-02|   -3.062247|
|          39|  6.3990e-02|   -3.115260|
|          40|  6.4888e-02|   -3.167294|
|          41|  6.5575e-02|   -3.218316|
|          42|  6.6248e-02|   -3.268337|
|          43|  6.6996e-02|   -3.317417|
|          44|  6.7742e-02|   -3.365655|
|          45|  6.8532e-02|   -3.413187|
|          46|  6.9074e-02|   -3.460180|
|          47|  6.9088e-02|   -3.506817|
|          48|  6.9013e-02|   -3.553291|
|          49|  6.9167e-02|   -3.599791|
|          50|  6.9077e-02|   -3.646497|
|          51|  6.9080e-02|   -3.693574|
|          52|  6.9456e-02|   -3.741175|
|          53|  6.9348e-02|   -3.789441|
|          54|  6.9257e-02|   -3.838507|
|          55|  6.9147e-02|   -3.888506|
|          56|  6.9086e-02|   -3.939574|
|          57|  6.9048e-02|   -3.991855|
|          58|  6.8969e-02|   -4.045495|
|          59|  6.8901e-02|   -4.100649|
|          60|  6.8813e-02|   -4.157476|
|          61|  6.8751e-02|   -4.216132|
|          62|  6.8971e-02|   -4.276772|
|          63|  6.9656e-02|   -4.339542|
|          64|  6.9723e-02|   -4.404576|
|          65|  6.9631e-02|   -4.471991|
|          66|  6.9554e-02|   -4.541883|
|          67|  6.9443e-02|   -4.614316|
|          68|  6.9337e-02|   -4.689319|
|          69|  6.9290e-02|   -4.766871|
|          70|  6.9246e-02|   -4.846888|
|          71|  6.9197e-02|   -4.929198|
|          72|  6.9153e-02|   -5.013524|
|          73|  6.9110e-02|   -5.099447|
|          74|  6.9062e-02|   -5.186389|
|          75|  6.9024e-02|   -5.273592|
|          76|  6.8994e-02|   -5.360136|
|          77|  6.8997e-02|   -5.445004|
|          78|  6.9375e-02|   -5.527204|
|          79|  6.9802e-02|   -5.605945|
|          80|  7.0258e-02|   -5.680806|
|          81|  7.0327e-02|   -5.751845|
|          82|  7.0266e-02|   -5.819582|
|          83|  7.0222e-02|   -5.884867|
|          84|  7.0182e-02|   -5.948708|
|          85|  7.0095e-02|   -6.012099|
|          86|  7.0025e-02|   -6.075917|
|          87|  6.9976e-02|   -6.140869|
|          88|  7.0209e-02|   -6.207487|
|          89|  7.0403e-02|   -6.276144|
|          90|  7.0709e-02|   -6.347079|
|          91|  7.0888e-02|   -6.420425|
|          92|  7.0838e-02|   -6.496229|
|          93|  7.0865e-02|   -6.574467|
|          94|  7.0948e-02|   -6.655060|
|          95|  7.0915e-02|   -6.737879|
|          96|  7.0845e-02|   -6.822751|
|          97|  7.0762e-02|   -6.909463|
|          98|  7.0688e-02|   -6.997768|
|          99|  7.0605e-02|   -7.087385|
|         100|  7.0523e-02|   -7.178011|
+-----------------------------------------------------------------------+
|        File Writing Summary       |              Filename             |
+-----------------------------------------------------------------------+
|SU2 binary restart                 |restart_flow.dat                   |
|Paraview                           |flow.vtu                           |
|Paraview surface                   |surface_flow.vtu                   |
+-----------------------------------------------------------------------+
+--------------------------------------+
|  Inner_Iter|   Time(sec)|    rms[Rho]|
+--------------------------------------+
|         101|  7.0517e-02|   -7.269324|
|         102|  7.0440e-02|   -7.361005|
|         103|  7.0384e-02|   -7.452746|
|         104|  7.0455e-02|   -7.544272|
|         105|  7.0383e-02|   -7.635359|
|         106|  7.0426e-02|   -7.725848|
|         107|  7.0654e-02|   -7.815658|
|         108|  7.0881e-02|   -7.904786|
|         109|  7.1107e-02|   -7.993303|
|         110|  7.1411e-02|   -8.081338|
|         111|  7.1821e-02|   -8.169074|
|         112|  7.2219e-02|   -8.256712|
|         113|  7.2596e-02|   -8.344470|
|         114|  7.2732e-02|   -8.432565|
|         115|  7.2875e-02|   -8.521198|
|         116|  7.2995e-02|   -8.610559|
|         117|  7.3112e-02|   -8.700807|
|         118|  7.3183e-02|   -8.792088|
|         119|  7.3339e-02|   -8.884523|
|         120|  7.3467e-02|   -8.978212|
|         121|  7.3357e-02|   -9.073232|
|         122|  7.3245e-02|   -9.169669|
|         123|  7.3137e-02|   -9.267573|
|         124|  7.3028e-02|   -9.366984|
|         125|  7.2921e-02|   -9.467941|
|         126|  7.2816e-02|   -9.570472|
|         127|  7.2722e-02|   -9.674601|
|         128|  7.2621e-02|   -9.780351|
|         129|  7.2526e-02|   -9.887736|
|         130|  7.2429e-02|   -9.996753|
|         131|  7.2332e-02|  -10.107381|
|         132|  7.2254e-02|  -10.219656|
|         133|  7.2159e-02|  -10.333417|
|         134|  7.2086e-02|  -10.448821|
|         135|  7.2013e-02|  -10.565597|
|         136|  7.1940e-02|  -10.683859|
|         137|  7.1870e-02|  -10.802752|
|         138|  7.1799e-02|  -10.921553|
|         139|  7.1728e-02|  -11.040984|
|         140|  7.1660e-02|  -11.156617|
|         141|  7.1595e-02|  -11.266510|
|         142|  7.1529e-02|  -11.372812|
|         143|  7.1466e-02|  -11.457169|
|         144|  7.1403e-02|  -11.534971|
|         145|  7.1343e-02|  -11.583908|
|         146|  7.1281e-02|  -11.627781|
|         147|  7.1224e-02|  -11.644277|
|         148|  7.1165e-02|  -11.658820|
|         149|  7.1105e-02|  -11.657045|
|         150|  7.1045e-02|  -11.662772|
|         151|  7.0987e-02|  -11.671914|
|         152|  7.0931e-02|  -11.659150|
|         153|  7.0884e-02|  -11.657657|
|         154|  7.0827e-02|  -11.676719|
|         155|  7.0772e-02|  -11.672387|
|         156|  7.0717e-02|  -11.667651|
|         157|  7.0662e-02|  -11.664633|
|         158|  7.0608e-02|  -11.675638|
|         159|  7.0558e-02|  -11.672131|
|         160|  7.0508e-02|  -11.674719|
|         161|  7.0459e-02|  -11.679164|
|         162|  7.0410e-02|  -11.698038|
|         163|  7.0358e-02|  -11.685564|
|         164|  7.0307e-02|  -11.663738|
|         165|  7.0258e-02|  -11.679067|
|         166|  7.0208e-02|  -11.661173|
|         167|  7.0160e-02|  -11.696115|
|         168|  7.0113e-02|  -11.695966|
|         169|  7.0069e-02|  -11.679195|
|         170|  7.0023e-02|  -11.671216|
|         171|  6.9976e-02|  -11.678012|
|         172|  6.9931e-02|  -11.654952|
|         173|  6.9887e-02|  -11.681204|
|         174|  6.9844e-02|  -11.690290|
|         175|  6.9802e-02|  -11.675313|
|         176|  6.9761e-02|  -11.657848|
|         177|  6.9719e-02|  -11.680750|
|         178|  6.9677e-02|  -11.696360|
|         179|  6.9700e-02|  -11.693040|
|         180|  6.9853e-02|  -11.681967|
|         181|  6.9983e-02|  -11.672227|
|         182|  7.0125e-02|  -11.683390|
|         183|  7.0265e-02|  -11.670770|
|         184|  7.0407e-02|  -11.668627|
|         185|  7.0540e-02|  -11.692981|
|         186|  7.0672e-02|  -11.679217|
|         187|  7.0770e-02|  -11.679300|
|         188|  7.0728e-02|  -11.659841|
|         189|  7.0686e-02|  -11.678789|
|         190|  7.0758e-02|  -11.677900|
|         191|  7.0833e-02|  -11.680619|
|         192|  7.0917e-02|  -11.686587|
|         193|  7.1055e-02|  -11.690756|
|         194|  7.1519e-02|  -11.678109|
|         195|  7.1780e-02|  -11.687374|
|         196|  7.1873e-02|  -11.675157|
|         197|  7.1844e-02|  -11.689692|
|         198|  7.1805e-02|  -11.688883|
|         199|  7.1872e-02|  -11.672835|
|         200|  7.1959e-02|  -11.667651|
+-----------------------------------------------------------------------+
|        File Writing Summary       |              Filename             |
+-----------------------------------------------------------------------+
|SU2 binary restart                 |restart_flow.dat                   |
|Paraview                           |flow.vtu                           |
|Paraview surface                   |surface_flow.vtu                   |
+-----------------------------------------------------------------------+
+--------------------------------------+
|  Inner_Iter|   Time(sec)|    rms[Rho]|
+--------------------------------------+
|         201|  7.2009e-02|  -11.677501|
|         202|  7.1965e-02|  -11.679578|
|         203|  7.1921e-02|  -11.677385|
|         204|  7.1873e-02|  -11.690463|
|         205|  7.1830e-02|  -11.689482|
|         206|  7.1786e-02|  -11.684854|
|         207|  7.1747e-02|  -11.673309|
|         208|  7.1708e-02|  -11.668220|
|         209|  7.1665e-02|  -11.666059|
|         210|  7.1630e-02|  -11.665820|
|         211|  7.1587e-02|  -11.663440|
|         212|  7.1543e-02|  -11.659738|
|         213|  7.1501e-02|  -11.651147|
|         214|  7.1458e-02|  -11.676421|
|         215|  7.1422e-02|  -11.690321|
|         216|  7.1381e-02|  -11.676772|
|         217|  7.1338e-02|  -11.679623|
|         218|  7.1296e-02|  -11.671967|
|         219|  7.1254e-02|  -11.664223|
|         220|  7.1212e-02|  -11.691996|
|         221|  7.1171e-02|  -11.667147|
|         222|  7.1131e-02|  -11.684241|
|         223|  7.1096e-02|  -11.672976|
|         224|  7.1057e-02|  -11.657810|
|         225|  7.1017e-02|  -11.680943|
|         226|  7.0978e-02|  -11.668079|
|         227|  7.0941e-02|  -11.667299|
|         228|  7.0903e-02|  -11.669857|
|         229|  7.0867e-02|  -11.664731|
|         230|  7.0830e-02|  -11.676815|
|         231|  7.0793e-02|  -11.657677|
|         232|  7.0757e-02|  -11.665884|
|         233|  7.0728e-02|  -11.668357|
|         234|  7.0692e-02|  -11.680182|
|         235|  7.0665e-02|  -11.692039|
|         236|  7.0644e-02|  -11.690953|
|         237|  7.0608e-02|  -11.665318|
|         238|  7.0573e-02|  -11.669841|
|         239|  7.0540e-02|  -11.689747|
|         240|  7.0506e-02|  -11.685519|
|         241|  7.0471e-02|  -11.669660|
|         242|  7.0438e-02|  -11.667117|
|         243|  7.0404e-02|  -11.652869|
|         244|  7.0371e-02|  -11.662286|
|         245|  7.0251e-02|  -11.676445|
|         246|  7.0087e-02|  -11.693870|
|         247|  6.9900e-02|  -11.689346|
|         248|  6.9716e-02|  -11.688643|
|         249|  6.9532e-02|  -11.709737|
|         250|  6.9352e-02|  -11.699382|
|         251|  6.9171e-02|  -11.701039|
|         252|  6.8992e-02|  -11.714917|
|         253|  6.8814e-02|  -11.683206|
|         254|  6.8637e-02|  -11.696565|
|         255|  6.8475e-02|  -11.697389|
|         256|  6.8376e-02|  -11.698816|
|         257|  6.8249e-02|  -11.699769|
|         258|  6.8110e-02|  -11.697481|
|         259|  6.7977e-02|  -11.696394|
|         260|  6.7843e-02|  -11.693310|
|         261|  6.7712e-02|  -11.696302|
|         262|  6.7578e-02|  -11.701997|
|         263|  6.7449e-02|  -11.690271|
|         264|  6.7318e-02|  -11.687992|
|         265|  6.7190e-02|  -11.676906|
|         266|  6.7063e-02|  -11.693070|
|         267|  6.6936e-02|  -11.687577|
|         268|  6.6810e-02|  -11.683995|
|         269|  6.6683e-02|  -11.692243|
|         270|  6.6560e-02|  -11.691753|
|         271|  6.6435e-02|  -11.688096|
|         272|  6.6314e-02|  -11.688873|
|         273|  6.6187e-02|  -11.677387|
|         274|  6.6065e-02|  -11.685706|
|         275|  6.5948e-02|  -11.688791|
|         276|  6.5830e-02|  -11.677541|
|         277|  6.5712e-02|  -11.667998|
|         278|  6.5597e-02|  -11.686386|
|         279|  6.5455e-02|  -11.680781|
|         280|  6.5307e-02|  -11.677311|
|         281|  6.5160e-02|  -11.670073|
|         282|  6.5015e-02|  -11.668279|
|         283|  6.4870e-02|  -11.672764|
|         284|  6.4727e-02|  -11.678437|
|         285|  6.4584e-02|  -11.666005|
|         286|  6.4442e-02|  -11.672482|
|         287|  6.4301e-02|  -11.665835|
|         288|  6.4161e-02|  -11.663448|
|         289|  6.4021e-02|  -11.669051|
|         290|  6.3883e-02|  -11.678078|
|         291|  6.3746e-02|  -11.673288|
|         292|  6.3610e-02|  -11.663834|
|         293|  6.3474e-02|  -11.661925|
|         294|  6.3340e-02|  -11.661113|
|         295|  6.3206e-02|  -11.652524|
|         296|  6.3073e-02|  -11.657090|
|         297|  6.2941e-02|  -11.663001|
|         298|  6.2810e-02|  -11.657961|
|         299|  6.2680e-02|  -11.656463|
|         300|  6.2552e-02|  -11.664975|
+-----------------------------------------------------------------------+
|        File Writing Summary       |              Filename             |
+-----------------------------------------------------------------------+
|SU2 binary restart                 |restart_flow.dat                   |
|Paraview                           |flow.vtu                           |
|Paraview surface                   |surface_flow.vtu                   |
+-----------------------------------------------------------------------+
+--------------------------------------+
|  Inner_Iter|   Time(sec)|    rms[Rho]|
+--------------------------------------+
|         301|  6.2456e-02|  -11.654600|
|         302|  6.2336e-02|  -11.657636|
|         303|  6.2211e-02|  -11.664573|
|         304|  6.2086e-02|  -11.653217|
|         305|  6.1961e-02|  -11.650605|
|         306|  6.1838e-02|  -11.660943|
|         307|  6.1714e-02|  -11.666887|
|         308|  6.1591e-02|  -11.644445|
|         309|  6.1470e-02|  -11.657159|
|         310|  6.1348e-02|  -11.644000|
|         311|  6.1228e-02|  -11.647684|
|         312|  6.1109e-02|  -11.643047|
|         313|  6.0990e-02|  -11.655169|
|         314|  6.0873e-02|  -11.647030|
|         315|  6.0756e-02|  -11.649854|
|         316|  6.0645e-02|  -11.648216|
|         317|  6.0545e-02|  -11.658713|
|         318|  6.0435e-02|  -11.652708|
|         319|  6.0323e-02|  -11.651823|
|         320|  6.0209e-02|  -11.646420|
|         321|  6.0097e-02|  -11.644619|
|         322|  5.9986e-02|  -11.649602|
|         323|  5.9880e-02|  -11.652078|
|         324|  5.9770e-02|  -11.648107|
|         325|  5.9660e-02|  -11.649712|
|         326|  5.9552e-02|  -11.648113|
|         327|  5.9444e-02|  -11.642224|
|         328|  5.9336e-02|  -11.640615|
|         329|  5.9228e-02|  -11.641833|
|         330|  5.9122e-02|  -11.639989|
|         331|  5.9016e-02|  -11.648568|
|         332|  5.8911e-02|  -11.654074|
|         333|  5.8805e-02|  -11.645276|
|         334|  5.8703e-02|  -11.649101|
|         335|  5.8601e-02|  -11.649520|
|         336|  5.8499e-02|  -11.651030|
|         337|  5.8397e-02|  -11.649789|
|         338|  5.8295e-02|  -11.649922|
|         339|  5.8194e-02|  -11.647931|
|         340|  5.8093e-02|  -11.646791|
|         341|  5.7992e-02|  -11.641464|
|         342|  5.7892e-02|  -11.643857|
|         343|  5.7796e-02|  -11.634422|
|         344|  5.7699e-02|  -11.644903|
|         345|  5.7601e-02|  -11.634595|
|         346|  5.7506e-02|  -11.642811|
|         347|  5.7411e-02|  -11.642320|
|         348|  5.7318e-02|  -11.642920|
|         349|  5.7225e-02|  -11.656565|
|         350|  5.7139e-02|  -11.649422|
|         351|  5.7059e-02|  -11.650411|
|         352|  5.6988e-02|  -11.642642|
|         353|  5.6923e-02|  -11.653394|
|         354|  5.6843e-02|  -11.643907|
|         355|  5.6774e-02|  -11.638869|
|         356|  5.6709e-02|  -11.645740|
|         357|  5.6649e-02|  -11.640704|
|         358|  5.6587e-02|  -11.650292|
|         359|  5.6527e-02|  -11.645448|
|         360|  5.6470e-02|  -11.650116|
|         361|  5.6449e-02|  -11.650734|
|         362|  5.6379e-02|  -11.644422|
|         363|  5.6307e-02|  -11.645118|
|         364|  5.6236e-02|  -11.650206|
|         365|  5.6164e-02|  -11.650273|
|         366|  5.6093e-02|  -11.642719|
|         367|  5.6021e-02|  -11.642540|
|         368|  5.5951e-02|  -11.644905|
|         369|  5.5881e-02|  -11.651406|
|         370|  5.5813e-02|  -11.647154|
|         371|  5.5743e-02|  -11.655581|
|         372|  5.5673e-02|  -11.646298|
|         373|  5.5603e-02|  -11.650759|
|         374|  5.5531e-02|  -11.653644|
|         375|  5.5461e-02|  -11.648037|
|         376|  5.5390e-02|  -11.645228|
|         377|  5.5322e-02|  -11.644675|
|         378|  5.5252e-02|  -11.647200|
|         379|  5.5183e-02|  -11.647628|
|         380|  5.5113e-02|  -11.642626|
|         381|  5.5052e-02|  -11.656240|
|         382|  5.4997e-02|  -11.650996|
|         383|  5.4945e-02|  -11.646391|
|         384|  5.4898e-02|  -11.648806|
|         385|  5.4848e-02|  -11.657554|
|         386|  5.4821e-02|  -11.650114|
|         387|  5.4805e-02|  -11.652692|
|         388|  5.4776e-02|  -11.647176|
|         389|  5.4730e-02|  -11.651167|
|         390|  5.4682e-02|  -11.642084|
|         391|  5.4638e-02|  -11.647655|
|         392|  5.4607e-02|  -11.662324|
|         393|  5.4554e-02|  -11.654332|
|         394|  5.4497e-02|  -11.659520|
|         395|  5.4434e-02|  -11.662121|
|         396|  5.4372e-02|  -11.655100|
|         397|  5.4311e-02|  -11.655383|
|         398|  5.4250e-02|  -11.656181|
|         399|  5.4189e-02|  -11.651500|
|         400|  5.4129e-02|  -11.651948|
+-----------------------------------------------------------------------+
|        File Writing Summary       |              Filename             |
+-----------------------------------------------------------------------+
|SU2 binary restart                 |restart_flow.dat                   |
|Paraview                           |flow.vtu                           |
|Paraview surface                   |surface_flow.vtu                   |
+-----------------------------------------------------------------------+
+--------------------------------------+
|  Inner_Iter|   Time(sec)|    rms[Rho]|
+--------------------------------------+
|         401|  5.4091e-02|  -11.650394|
|         402|  5.4031e-02|  -11.661974|
|         403|  5.3969e-02|  -11.655129|
|         404|  5.3911e-02|  -11.661941|
|         405|  5.3849e-02|  -11.661478|
|         406|  5.3788e-02|  -11.661561|
|         407|  5.3728e-02|  -11.667068|
|         408|  5.3668e-02|  -11.666058|
|         409|  5.3607e-02|  -11.667922|
|         410|  5.3547e-02|  -11.663152|
|         411|  5.3488e-02|  -11.665436|
|         412|  5.3428e-02|  -11.660178|
|         413|  5.3370e-02|  -11.651903|
|         414|  5.3311e-02|  -11.669234|
|         415|  5.3252e-02|  -11.665254|
|         416|  5.3196e-02|  -11.656402|
|         417|  5.3138e-02|  -11.665195|
|         418|  5.3100e-02|  -11.654560|
|         419|  5.3075e-02|  -11.661343|
|         420|  5.3051e-02|  -11.669324|
|         421|  5.3031e-02|  -11.670738|
|         422|  5.3010e-02|  -11.669330|
|         423|  5.2991e-02|  -11.670302|
|         424|  5.2973e-02|  -11.671969|
|         425|  5.2956e-02|  -11.667002|
|         426|  5.2936e-02|  -11.671434|
|         427|  5.2920e-02|  -11.664225|
|         428|  5.2906e-02|  -11.675156|
|         429|  5.2889e-02|  -11.668113|
|         430|  5.2875e-02|  -11.668222|
|         431|  5.2862e-02|  -11.671235|
|         432|  5.2849e-02|  -11.674837|
|         433|  5.2838e-02|  -11.665320|
|         434|  5.2825e-02|  -11.673216|
|         435|  5.2813e-02|  -11.673916|
|         436|  5.2799e-02|  -11.676160|
|         437|  5.2784e-02|  -11.670099|
|         438|  5.2772e-02|  -11.672545|
|         439|  5.2761e-02|  -11.673910|
|         440|  5.2750e-02|  -11.663778|
|         441|  5.2737e-02|  -11.671230|
|         442|  5.2724e-02|  -11.676004|
|         443|  5.2710e-02|  -11.669807|
|         444|  5.2696e-02|  -11.672801|
|         445|  5.2678e-02|  -11.676642|
|         446|  5.2660e-02|  -11.671908|
|         447|  5.2644e-02|  -11.675832|
|         448|  5.2625e-02|  -11.671491|
|         449|  5.2607e-02|  -11.678427|
|         450|  5.2589e-02|  -11.675566|
|         451|  5.2572e-02|  -11.681300|
|         452|  5.2554e-02|  -11.680228|
|         453|  5.2537e-02|  -11.672510|
|         454|  5.2521e-02|  -11.686556|
|         455|  5.2510e-02|  -11.689560|
|         456|  5.2498e-02|  -11.679415|
|         457|  5.2484e-02|  -11.681167|
|         458|  5.2467e-02|  -11.681939|
|         459|  5.2451e-02|  -11.678685|
|         460|  5.2436e-02|  -11.673493|
|         461|  5.2419e-02|  -11.681286|
|         462|  5.2403e-02|  -11.685028|
|         463|  5.2387e-02|  -11.676444|
|         464|  5.2371e-02|  -11.694391|
|         465|  5.2354e-02|  -11.674980|
|         466|  5.2340e-02|  -11.680752|
|         467|  5.2325e-02|  -11.674590|
|         468|  5.2310e-02|  -11.684261|
|         469|  5.2294e-02|  -11.682014|
|         470|  5.2277e-02|  -11.676982|
|         471|  5.2262e-02|  -11.686688|
|         472|  5.2246e-02|  -11.684825|
|         473|  5.2229e-02|  -11.681948|
|         474|  5.2212e-02|  -11.688247|
|         475|  5.2179e-02|  -11.687391|
|         476|  5.2158e-02|  -11.683241|
|         477|  5.2138e-02|  -11.682978|
|         478|  5.2126e-02|  -11.677749|
|         479|  5.2114e-02|  -11.685400|
|         480|  5.2082e-02|  -11.672586|
|         481|  5.2036e-02|  -11.677328|
|         482|  5.1991e-02|  -11.686652|
|         483|  5.1945e-02|  -11.681080|
|         484|  5.1900e-02|  -11.689458|
|         485|  5.1854e-02|  -11.689959|
|         486|  5.1807e-02|  -11.683595|
|         487|  5.1760e-02|  -11.686936|
|         488|  5.1713e-02|  -11.689098|
|         489|  5.1669e-02|  -11.681271|
|         490|  5.1623e-02|  -11.672783|
|         491|  5.1577e-02|  -11.687124|
|         492|  5.1532e-02|  -11.683954|
|         493|  5.1486e-02|  -11.691988|
|         494|  5.1440e-02|  -11.683062|
|         495|  5.1395e-02|  -11.690362|
|         496|  5.1350e-02|  -11.690174|
|         497|  5.1305e-02|  -11.687261|
|         498|  5.1258e-02|  -11.688123|
|         499|  5.1214e-02|  -11.680857|
|         500|  5.1169e-02|  -11.695654|
+-----------------------------------------------------------------------+
|        File Writing Summary       |              Filename             |
+-----------------------------------------------------------------------+
|SU2 binary restart                 |restart_flow.dat                   |
|Paraview                           |flow.vtu                           |
|Paraview surface                   |surface_flow.vtu                   |
+-----------------------------------------------------------------------+
+--------------------------------------+
|  Inner_Iter|   Time(sec)|    rms[Rho]|
+--------------------------------------+
|         501|  5.1143e-02|  -11.686596|
|         502|  5.1099e-02|  -11.693291|
|         503|  5.1056e-02|  -11.690796|
|         504|  5.1012e-02|  -11.688298|
|         505|  5.0968e-02|  -11.688157|
|         506|  5.0925e-02|  -11.685878|
|         507|  5.0882e-02|  -11.700663|
|         508|  5.0839e-02|  -11.695975|
|         509|  5.0799e-02|  -11.684623|
|         510|  5.0756e-02|  -11.687592|
|         511|  5.0713e-02|  -11.693130|
|         512|  5.0671e-02|  -11.695294|
|         513|  5.0628e-02|  -11.690942|
|         514|  5.0584e-02|  -11.704465|
|         515|  5.0541e-02|  -11.684765|
|         516|  5.0498e-02|  -11.701595|
|         517|  5.0455e-02|  -11.703194|
|         518|  5.0413e-02|  -11.697920|
|         519|  5.0371e-02|  -11.700494|
|         520|  5.0330e-02|  -11.690970|
|         521|  5.0289e-02|  -11.688966|
|         522|  5.0249e-02|  -11.700709|
|         523|  5.0210e-02|  -11.689034|
|         524|  5.0169e-02|  -11.687938|
|         525|  5.0129e-02|  -11.697694|
|         526|  5.0090e-02|  -11.702776|
|         527|  5.0049e-02|  -11.696333|
|         528|  5.0008e-02|  -11.714717|
|         529|  4.9967e-02|  -11.691883|
|         530|  4.9926e-02|  -11.694033|
|         531|  4.9885e-02|  -11.701914|
|         532|  4.9845e-02|  -11.696523|
|         533|  4.9805e-02|  -11.700600|
|         534|  4.9766e-02|  -11.702188|
|         535|  4.9727e-02|  -11.708266|
|         536|  4.9689e-02|  -11.699918|
|         537|  4.9650e-02|  -11.706122|
|         538|  4.9612e-02|  -11.690257|
|         539|  4.9574e-02|  -11.699992|
|         540|  4.9536e-02|  -11.696241|
|         541|  4.9497e-02|  -11.705694|
|         542|  4.9458e-02|  -11.692458|
|         543|  4.9419e-02|  -11.711995|
|         544|  4.9378e-02|  -11.689806|
|         545|  4.9339e-02|  -11.695581|
|         546|  4.9302e-02|  -11.699412|
|         547|  4.9265e-02|  -11.701129|
|         548|  4.9228e-02|  -11.700387|
|         549|  4.9191e-02|  -11.705131|
|         550|  4.9154e-02|  -11.702022|
|         551|  4.9118e-02|  -11.693582|
|         552|  4.9081e-02|  -11.707111|
|         553|  4.9044e-02|  -11.706417|
|         554|  4.9007e-02|  -11.701458|
|         555|  4.8969e-02|  -11.717547|
|         556|  4.8931e-02|  -11.701026|
|         557|  4.8895e-02|  -11.712083|
|         558|  4.8861e-02|  -11.706243|
|         559|  4.8825e-02|  -11.710744|
|         560|  4.8790e-02|  -11.701380|
|         561|  4.8756e-02|  -11.717680|
|         562|  4.8721e-02|  -11.703215|
|         563|  4.8686e-02|  -11.710905|
|         564|  4.8651e-02|  -11.701344|
|         565|  4.8617e-02|  -11.696644|
|         566|  4.8581e-02|  -11.705832|
|         567|  4.8556e-02|  -11.700225|
|         568|  4.8529e-02|  -11.700179|
|         569|  4.8505e-02|  -11.702198|
|         570|  4.8481e-02|  -11.705661|
|         571|  4.8459e-02|  -11.706407|
|         572|  4.8433e-02|  -11.708516|
|         573|  4.8407e-02|  -11.708217|
|         574|  4.8386e-02|  -11.698761|
|         575|  4.8365e-02|  -11.712214|
|         576|  4.8342e-02|  -11.706482|
|         577|  4.8319e-02|  -11.702573|
|         578|  4.8296e-02|  -11.712821|
|         579|  4.8273e-02|  -11.709280|
|         580|  4.8252e-02|  -11.723809|
|         581|  4.8227e-02|  -11.712484|
|         582|  4.8206e-02|  -11.709426|
|         583|  4.8182e-02|  -11.699214|
|         584|  4.8161e-02|  -11.712881|
|         585|  4.8136e-02|  -11.709591|
|         586|  4.8119e-02|  -11.716425|
|         587|  4.8097e-02|  -11.709319|
|         588|  4.8077e-02|  -11.712276|
|         589|  4.8049e-02|  -11.711366|
|         590|  4.8018e-02|  -11.711052|
|         591|  4.7987e-02|  -11.719489|
|         592|  4.7957e-02|  -11.714101|
|         593|  4.7926e-02|  -11.718670|
|         594|  4.7894e-02|  -11.706965|
|         595|  4.7863e-02|  -11.709933|
|         596|  4.7831e-02|  -11.711264|
|         597|  4.7799e-02|  -11.723733|
|         598|  4.7768e-02|  -11.721002|
|         599|  4.7736e-02|  -11.715991|
|         600|  4.7705e-02|  -11.704136|
+-----------------------------------------------------------------------+
|        File Writing Summary       |              Filename             |
+-----------------------------------------------------------------------+
|SU2 binary restart                 |restart_flow.dat                   |
|Paraview                           |flow.vtu                           |
|Paraview surface                   |surface_flow.vtu                   |
+-----------------------------------------------------------------------+
+--------------------------------------+
|  Inner_Iter|   Time(sec)|    rms[Rho]|
+--------------------------------------+
|         601|  4.7689e-02|  -11.711876|
|         602|  4.7658e-02|  -11.726439|
|         603|  4.7627e-02|  -11.721168|
|         604|  4.7596e-02|  -11.723495|
|         605|  4.7566e-02|  -11.722666|
|         606|  4.7535e-02|  -11.713240|
|         607|  4.7504e-02|  -11.714550|
|         608|  4.7473e-02|  -11.710881|
|         609|  4.7442e-02|  -11.717982|
|         610|  4.7412e-02|  -11.717951|
|         611|  4.7382e-02|  -11.708297|
|         612|  4.7352e-02|  -11.707543|
|         613|  4.7322e-02|  -11.708282|
|         614|  4.7290e-02|  -11.715489|
|         615|  4.7259e-02|  -11.713887|
|         616|  4.7228e-02|  -11.709208|
|         617|  4.7197e-02|  -11.719930|
|         618|  4.7166e-02|  -11.721042|
|         619|  4.7137e-02|  -11.716744|
|         620|  4.7108e-02|  -11.712670|
|         621|  4.7078e-02|  -11.708998|
|         622|  4.7050e-02|  -11.722311|
|         623|  4.7021e-02|  -11.712724|
|         624|  4.6992e-02|  -11.712831|
|         625|  4.6964e-02|  -11.702942|
|         626|  4.6936e-02|  -11.709756|
|         627|  4.6907e-02|  -11.703789|
|         628|  4.6877e-02|  -11.710798|
|         629|  4.6847e-02|  -11.715932|
|         630|  4.6818e-02|  -11.708760|
|         631|  4.6789e-02|  -11.718763|
|         632|  4.6759e-02|  -11.715735|
|         633|  4.6731e-02|  -11.721283|
|         634|  4.6703e-02|  -11.715583|
|         635|  4.6675e-02|  -11.715946|
|         636|  4.6647e-02|  -11.717722|
|         637|  4.6619e-02|  -11.710397|
|         638|  4.6591e-02|  -11.714837|
|         639|  4.6564e-02|  -11.724607|
|         640|  4.6536e-02|  -11.714087|
|         641|  4.6507e-02|  -11.711711|
|         642|  4.6478e-02|  -11.735489|
|         643|  4.6448e-02|  -11.704815|
|         644|  4.6420e-02|  -11.718912|
|         645|  4.6393e-02|  -11.714585|
|         646|  4.6366e-02|  -11.713638|
|         647|  4.6339e-02|  -11.726649|
|         648|  4.6312e-02|  -11.716648|
|         649|  4.6286e-02|  -11.721445|
|         650|  4.6259e-02|  -11.715706|
|         651|  4.6232e-02|  -11.703355|
|         652|  4.6205e-02|  -11.713565|
|         653|  4.6177e-02|  -11.709654|
|         654|  4.6149e-02|  -11.715945|
|         655|  4.6122e-02|  -11.714676|
|         656|  4.6095e-02|  -11.727596|
|         657|  4.6070e-02|  -11.717226|
|         658|  4.6044e-02|  -11.712805|
|         659|  4.6018e-02|  -11.723961|
|         660|  4.5992e-02|  -11.725616|
|         661|  4.5967e-02|  -11.721079|
|         662|  4.5941e-02|  -11.721837|
|         663|  4.5916e-02|  -11.720581|
|         664|  4.5890e-02|  -11.720934|
|         665|  4.5863e-02|  -11.720509|
|         666|  4.5837e-02|  -11.715119|
|         667|  4.5810e-02|  -11.710802|
|         668|  4.5784e-02|  -11.715847|
|         669|  4.5758e-02|  -11.720910|
|         670|  4.5733e-02|  -11.715433|
|         671|  4.5708e-02|  -11.721700|
|         672|  4.5682e-02|  -11.710730|
|         673|  4.5658e-02|  -11.726530|
|         674|  4.5633e-02|  -11.716835|
|         675|  4.5608e-02|  -11.721522|
|         676|  4.5584e-02|  -11.732540|
|         677|  4.5558e-02|  -11.725584|
|         678|  4.5534e-02|  -11.721723|
|         679|  4.5508e-02|  -11.717708|
|         680|  4.5483e-02|  -11.715666|
|         681|  4.5458e-02|  -11.718415|
|         682|  4.5433e-02|  -11.716501|
|         683|  4.5408e-02|  -11.730082|
|         684|  4.5384e-02|  -11.732736|
|         685|  4.5360e-02|  -11.708901|
|         686|  4.5336e-02|  -11.720469|
|         687|  4.5312e-02|  -11.722088|
|         688|  4.5289e-02|  -11.719828|
|         689|  4.5265e-02|  -11.723443|
|         690|  4.5240e-02|  -11.722868|
|         691|  4.5216e-02|  -11.722796|
|         692|  4.5193e-02|  -11.725055|
|         693|  4.5170e-02|  -11.718412|
|         694|  4.5148e-02|  -11.727790|
|         695|  4.5129e-02|  -11.726725|
|         696|  4.5107e-02|  -11.726036|
|         697|  4.5084e-02|  -11.722619|
|         698|  4.5061e-02|  -11.736188|
|         699|  4.5039e-02|  -11.724692|
|         700|  4.5017e-02|  -11.719086|
+-----------------------------------------------------------------------+
|        File Writing Summary       |              Filename             |
+-----------------------------------------------------------------------+
|SU2 binary restart                 |restart_flow.dat                   |
|Paraview                           |flow.vtu                           |
|Paraview surface                   |surface_flow.vtu                   |
+-----------------------------------------------------------------------+
+--------------------------------------+
|  Inner_Iter|   Time(sec)|    rms[Rho]|
+--------------------------------------+
|         701|  4.5009e-02|  -11.725481|
|         702|  4.4987e-02|  -11.726070|
|         703|  4.4965e-02|  -11.726951|
|         704|  4.4943e-02|  -11.731240|
|         705|  4.4922e-02|  -11.735921|
|         706|  4.4904e-02|  -11.725652|
|         707|  4.4892e-02|  -11.730403|
|         708|  4.4877e-02|  -11.731853|
|         709|  4.4867e-02|  -11.716585|
|         710|  4.4852e-02|  -11.736102|
|         711|  4.4841e-02|  -11.733147|
|         712|  4.4833e-02|  -11.727737|
|         713|  4.4831e-02|  -11.723373|
|         714|  4.4840e-02|  -11.722985|
|         715|  4.4843e-02|  -11.720624|
|         716|  4.4837e-02|  -11.729474|
|         717|  4.4828e-02|  -11.726002|
|         718|  4.4817e-02|  -11.736062|
|         719|  4.4804e-02|  -11.734635|
|         720|  4.4793e-02|  -11.741789|
|         721|  4.4779e-02|  -11.721007|
|         722|  4.4762e-02|  -11.734452|
|         723|  4.4742e-02|  -11.744692|
|         724|  4.4721e-02|  -11.730791|
|         725|  4.4700e-02|  -11.726093|
|         726|  4.4679e-02|  -11.731519|
|         727|  4.4660e-02|  -11.730238|
|         728|  4.4641e-02|  -11.734454|
|         729|  4.4622e-02|  -11.723903|
|         730|  4.4614e-02|  -11.743600|
|         731|  4.4601e-02|  -11.736216|
|         732|  4.4591e-02|  -11.732629|
|         733|  4.4599e-02|  -11.739691|
|         734|  4.4599e-02|  -11.742381|
|         735|  4.4601e-02|  -11.731889|
|         736|  4.4605e-02|  -11.734817|
|         737|  4.4602e-02|  -11.738670|
|         738|  4.4604e-02|  -11.737143|
|         739|  4.4604e-02|  -11.727247|
|         740|  4.4607e-02|  -11.739689|
|         741|  4.4603e-02|  -11.742886|
|         742|  4.4592e-02|  -11.717342|
|         743|  4.4579e-02|  -11.732225|
|         744|  4.4565e-02|  -11.743243|
|         745|  4.4551e-02|  -11.732052|
|         746|  4.4537e-02|  -11.737402|
|         747|  4.4523e-02|  -11.727200|
|         748|  4.4509e-02|  -11.720489|
|         749|  4.4490e-02|  -11.734716|
|         750|  4.4472e-02|  -11.719018|
|         751|  4.4453e-02|  -11.729968|
|         752|  4.4433e-02|  -11.737273|
|         753|  4.4414e-02|  -11.730197|
|         754|  4.4397e-02|  -11.721044|
|         755|  4.4378e-02|  -11.720765|
|         756|  4.4358e-02|  -11.727005|
|         757|  4.4338e-02|  -11.723427|
|         758|  4.4321e-02|  -11.741415|
|         759|  4.4301e-02|  -11.724396|
|         760|  4.4281e-02|  -11.726616|
|         761|  4.4262e-02|  -11.739334|
|         762|  4.4243e-02|  -11.740808|
|         763|  4.4223e-02|  -11.731464|
|         764|  4.4204e-02|  -11.744598|
|         765|  4.4184e-02|  -11.738201|
|         766|  4.4164e-02|  -11.728827|
|         767|  4.4151e-02|  -11.735248|
|         768|  4.4139e-02|  -11.734673|
|         769|  4.4128e-02|  -11.741935|
|         770|  4.4116e-02|  -11.735328|
|         771|  4.4104e-02|  -11.731257|
|         772|  4.4092e-02|  -11.738445|
|         773|  4.4079e-02|  -11.730116|
|         774|  4.4066e-02|  -11.729931|
|         775|  4.4053e-02|  -11.739881|
|         776|  4.4041e-02|  -11.724247|
|         777|  4.4027e-02|  -11.742296|
|         778|  4.4008e-02|  -11.741370|
|         779|  4.3990e-02|  -11.736556|
|         780|  4.3973e-02|  -11.729397|
|         781|  4.3955e-02|  -11.730877|
|         782|  4.3936e-02|  -11.728655|
|         783|  4.3917e-02|  -11.725679|
|         784|  4.3899e-02|  -11.726348|
|         785|  4.3879e-02|  -11.733213|
|         786|  4.3861e-02|  -11.736250|
|         787|  4.3842e-02|  -11.733277|
|         788|  4.3824e-02|  -11.738542|
|         789|  4.3805e-02|  -11.736317|
|         790|  4.3786e-02|  -11.733980|
|         791|  4.3768e-02|  -11.733564|
|         792|  4.3749e-02|  -11.729598|
|         793|  4.3730e-02|  -11.740897|
|         794|  4.3712e-02|  -11.726198|
|         795|  4.3693e-02|  -11.735297|
|         796|  4.3675e-02|  -11.725952|
|         797|  4.3656e-02|  -11.743283|
|         798|  4.3638e-02|  -11.729604|
|         799|  4.3620e-02|  -11.728166|
|         800|  4.3602e-02|  -11.736566|
+-----------------------------------------------------------------------+
|        File Writing Summary       |              Filename             |
+-----------------------------------------------------------------------+
|SU2 binary restart                 |restart_flow.dat                   |
|Paraview                           |flow.vtu                           |
|Paraview surface                   |surface_flow.vtu                   |
+-----------------------------------------------------------------------+
+--------------------------------------+
|  Inner_Iter|   Time(sec)|    rms[Rho]|
+--------------------------------------+
|         801|  4.3595e-02|  -11.728252|
|         802|  4.3577e-02|  -11.725575|
|         803|  4.3558e-02|  -11.738316|
|         804|  4.3538e-02|  -11.727701|
|         805|  4.3520e-02|  -11.722475|
|         806|  4.3505e-02|  -11.743844|
|         807|  4.3488e-02|  -11.742992|
|         808|  4.3470e-02|  -11.746772|
|         809|  4.3452e-02|  -11.729113|
|         810|  4.3435e-02|  -11.742193|
|         811|  4.3417e-02|  -11.734156|
|         812|  4.3399e-02|  -11.722022|
|         813|  4.3381e-02|  -11.736086|
|         814|  4.3363e-02|  -11.728641|
|         815|  4.3345e-02|  -11.729268|
|         816|  4.3327e-02|  -11.745394|
|         817|  4.3309e-02|  -11.728444|
|         818|  4.3290e-02|  -11.732269|
|         819|  4.3272e-02|  -11.732935|
|         820|  4.3254e-02|  -11.736408|
|         821|  4.3237e-02|  -11.732677|
|         822|  4.3220e-02|  -11.740905|
|         823|  4.3202e-02|  -11.736069|
|         824|  4.3185e-02|  -11.736230|
|         825|  4.3168e-02|  -11.740441|
|         826|  4.3150e-02|  -11.729926|
|         827|  4.3132e-02|  -11.738229|
|         828|  4.3115e-02|  -11.719280|
|         829|  4.3097e-02|  -11.716392|
|         830|  4.3079e-02|  -11.742164|
|         831|  4.3061e-02|  -11.734820|
|         832|  4.3044e-02|  -11.737943|
|         833|  4.3027e-02|  -11.736880|
|         834|  4.3011e-02|  -11.734437|
|         835|  4.2994e-02|  -11.737770|
|         836|  4.2977e-02|  -11.743087|
|         837|  4.2960e-02|  -11.738662|
|         838|  4.2944e-02|  -11.723243|
|         839|  4.2927e-02|  -11.744971|
|         840|  4.2909e-02|  -11.728325|
|         841|  4.2891e-02|  -11.735732|
|         842|  4.2874e-02|  -11.724280|
|         843|  4.2856e-02|  -11.714170|
|         844|  4.2839e-02|  -11.739050|
|         845|  4.2822e-02|  -11.734374|
|         846|  4.2805e-02|  -11.726655|
|         847|  4.2789e-02|  -11.737450|
|         848|  4.2773e-02|  -11.737058|
|         849|  4.2757e-02|  -11.731236|
|         850|  4.2741e-02|  -11.730969|
|         851|  4.2725e-02|  -11.732151|
|         852|  4.2709e-02|  -11.742559|
|         853|  4.2692e-02|  -11.737289|
|         854|  4.2675e-02|  -11.732981|
|         855|  4.2660e-02|  -11.733334|
|         856|  4.2647e-02|  -11.739018|
|         857|  4.2642e-02|  -11.737537|
|         858|  4.2634e-02|  -11.733839|
|         859|  4.2622e-02|  -11.735803|
|         860|  4.2622e-02|  -11.730912|
|         861|  4.2629e-02|  -11.740963|
|         862|  4.2635e-02|  -11.743840|
|         863|  4.2642e-02|  -11.755330|
|         864|  4.2649e-02|  -11.742807|
|         865|  4.2657e-02|  -11.743355|
|         866|  4.2673e-02|  -11.749060|
|         867|  4.2688e-02|  -11.732921|
|         868|  4.2686e-02|  -11.739073|
|         869|  4.2673e-02|  -11.741865|
|         870|  4.2661e-02|  -11.745746|
|         871|  4.2648e-02|  -11.741590|
|         872|  4.2633e-02|  -11.747613|
|         873|  4.2621e-02|  -11.733906|
|         874|  4.2607e-02|  -11.741188|
|         875|  4.2602e-02|  -11.726083|
|         876|  4.2596e-02|  -11.749338|
|         877|  4.2594e-02|  -11.741686|
|         878|  4.2589e-02|  -11.736029|
|         879|  4.2585e-02|  -11.743693|
|         880|  4.2592e-02|  -11.739564|
|         881|  4.2605e-02|  -11.741420|
|         882|  4.2609e-02|  -11.727171|
|         883|  4.2614e-02|  -11.742822|
|         884|  4.2604e-02|  -11.738331|
|         885|  4.2595e-02|  -11.731910|
|         886|  4.2590e-02|  -11.732470|
|         887|  4.2589e-02|  -11.741294|
|         888|  4.2588e-02|  -11.738545|
|         889|  4.2585e-02|  -11.745408|
|         890|  4.2583e-02|  -11.748203|
|         891|  4.2577e-02|  -11.733622|
|         892|  4.2573e-02|  -11.733165|
|         893|  4.2572e-02|  -11.728252|
|         894|  4.2576e-02|  -11.729817|
|         895|  4.2582e-02|  -11.731092|
|         896|  4.2582e-02|  -11.736913|
|         897|  4.2587e-02|  -11.745701|
|         898|  4.2597e-02|  -11.751170|
|         899|  4.2604e-02|  -11.732764|
|         900|  4.2605e-02|  -11.742812|
+-----------------------------------------------------------------------+
|        File Writing Summary       |              Filename             |
+-----------------------------------------------------------------------+
|SU2 binary restart                 |restart_flow.dat                   |
|Paraview                           |flow.vtu                           |
|Paraview surface                   |surface_flow.vtu                   |
+-----------------------------------------------------------------------+
+--------------------------------------+
|  Inner_Iter|   Time(sec)|    rms[Rho]|
+--------------------------------------+
|         901|  4.2614e-02|  -11.733000|
|         902|  4.2608e-02|  -11.739308|
|         903|  4.2600e-02|  -11.744784|
|         904|  4.2598e-02|  -11.742444|
|         905|  4.2595e-02|  -11.743792|
|         906|  4.2588e-02|  -11.732660|
|         907|  4.2582e-02|  -11.738943|
|         908|  4.2574e-02|  -11.742890|
|         909|  4.2565e-02|  -11.737213|
|         910|  4.2559e-02|  -11.741827|
|         911|  4.2552e-02|  -11.730647|
|         912|  4.2543e-02|  -11.735886|
|         913|  4.2535e-02|  -11.741517|
|         914|  4.2534e-02|  -11.742911|
|         915|  4.2538e-02|  -11.726045|
|         916|  4.2545e-02|  -11.745689|
|         917|  4.2554e-02|  -11.742417|
|         918|  4.2562e-02|  -11.736120|
|         919|  4.2569e-02|  -11.739193|
|         920|  4.2573e-02|  -11.743697|
|         921|  4.2577e-02|  -11.742368|
|         922|  4.2581e-02|  -11.728556|
|         923|  4.2586e-02|  -11.731102|
|         924|  4.2595e-02|  -11.739723|
|         925|  4.2606e-02|  -11.741688|
|         926|  4.2615e-02|  -11.740038|
|         927|  4.2675e-02|  -11.739452|
|         928|  4.2684e-02|  -11.737927|
|         929|  4.2692e-02|  -11.723211|
|         930|  4.2699e-02|  -11.726063|
|         931|  4.2707e-02|  -11.747827|
|         932|  4.2709e-02|  -11.737016|
|         933|  4.2707e-02|  -11.731279|
|         934|  4.2711e-02|  -11.741626|
|         935|  4.2720e-02|  -11.751406|
|         936|  4.2728e-02|  -11.752440|
|         937|  4.2739e-02|  -11.744235|
|         938|  4.2746e-02|  -11.750697|
|         939|  4.2751e-02|  -11.745400|
|         940|  4.2758e-02|  -11.727461|
|         941|  4.2762e-02|  -11.741318|
|         942|  4.2765e-02|  -11.748791|
|         943|  4.2769e-02|  -11.735003|
|         944|  4.2772e-02|  -11.750931|
|         945|  4.2779e-02|  -11.729746|
|         946|  4.2786e-02|  -11.730417|
|         947|  4.2790e-02|  -11.741222|
|         948|  4.2795e-02|  -11.744593|
|         949|  4.2800e-02|  -11.736694|
|         950|  4.2802e-02|  -11.735843|
|         951|  4.2804e-02|  -11.729691|
|         952|  4.2805e-02|  -11.733700|
|         953|  4.2807e-02|  -11.737740|
|         954|  4.2805e-02|  -11.732994|
|         955|  4.2801e-02|  -11.741105|
|         956|  4.2803e-02|  -11.731808|
|         957|  4.2803e-02|  -11.743777|
|         958|  4.2807e-02|  -11.738768|
|         959|  4.2810e-02|  -11.751507|
|         960|  4.2801e-02|  -11.724348|
|         961|  4.2788e-02|  -11.728910|
|         962|  4.2775e-02|  -11.736007|
|         963|  4.2761e-02|  -11.735806|
|         964|  4.2759e-02|  -11.745580|
|         965|  4.2746e-02|  -11.727658|
|         966|  4.2749e-02|  -11.734565|
|         967|  4.2751e-02|  -11.741504|
|         968|  4.2745e-02|  -11.734077|
|         969|  4.2732e-02|  -11.736049|
|         970|  4.2718e-02|  -11.736896|
|         971|  4.2705e-02|  -11.744851|
|         972|  4.2693e-02|  -11.746872|
|         973|  4.2679e-02|  -11.744135|
|         974|  4.2665e-02|  -11.749036|
|         975|  4.2650e-02|  -11.735866|
|         976|  4.2636e-02|  -11.740413|
|         977|  4.2622e-02|  -11.729632|
|         978|  4.2608e-02|  -11.734270|
|         979|  4.2595e-02|  -11.740582|
|         980|  4.2581e-02|  -11.734421|
|         981|  4.2567e-02|  -11.734693|
|         982|  4.2553e-02|  -11.745428|
|         983|  4.2540e-02|  -11.738738|
|         984|  4.2529e-02|  -11.738925|
|         985|  4.2516e-02|  -11.724071|
|         986|  4.2503e-02|  -11.736745|
|         987|  4.2489e-02|  -11.731922|
|         988|  4.2475e-02|  -11.731073|
|         989|  4.2462e-02|  -11.733024|
|         990|  4.2448e-02|  -11.734014|
|         991|  4.2434e-02|  -11.736130|
|         992|  4.2420e-02|  -11.739464|
|         993|  4.2405e-02|  -11.723082|
|         994|  4.2391e-02|  -11.740276|
|         995|  4.2377e-02|  -11.731924|
|         996|  4.2363e-02|  -11.748105|
|         997|  4.2348e-02|  -11.738547|
|         998|  4.2334e-02|  -11.743500|
|         999|  4.2321e-02|  -11.737054|

----------------------------- Solver Exit -------------------------------

Maximum number of iterations reached (ITER = 1000) before convergence.
+-----------------------------------------------------------------------+
|      Convergence Field     |     Value    |   Criterion  |  Converged |
+-----------------------------------------------------------------------+
|                    rms[Rho]|      -11.7371|         < -20|          No|
+-----------------------------------------------------------------------+
-------------------------------------------------------------------------
+-----------------------------------------------------------------------+
|        File Writing Summary       |              Filename             |
+-----------------------------------------------------------------------+
|SU2 binary restart                 |restart_flow.dat                   |
|Paraview                           |flow.vtu                           |
|Paraview surface                   |surface_flow.vtu                   |
+-----------------------------------------------------------------------+

------------------------- Solver Postprocessing -------------------------
Deleted CNumerics container.
Deleted CIntegration container.
Deleted CSolver container.
Deleted CIteration container.
Deleted CInterface container.
Deleted CGeometry container.
Deleted CFreeFormDefBox class.
Deleted CSurfaceMovement class.
Deleted CVolumetricMovement class.
Deleted CConfig container.
Deleted nInst container.
Deleted COutput class.
-------------------------------------------------------------------------

------------------------- Exit Success (SU2_CFD) ------------------------

