
-------------------------------------------------------------------------
|    ___ _   _ ___                                                      |
|   / __| | | |_  )   Release 7.5.1 "Blackbird"                         |
|   \__ \ |_| |/ /                                                      |
|   |___/\___//___|   Suite (Computational Fluid Dynamics Code)         |
|                                                                       |
-------------------------------------------------------------------------
| SU2 Project Website: https://su2code.github.io                        |
|                                                                       |
| The SU2 Project is maintained by the SU2 Foundation                   |
| (http://su2foundation.org)                                            |
-------------------------------------------------------------------------
| Copyright 2012-2023, SU2 Contributors                                 |
|                                                                       |
| SU2 is free software; you can redistribute it and/or                  |
| modify it under the terms of the GNU Lesser General Public            |
| License as published by the Free Software Foundation; either          |
| version 2.1 of the License, or (at your option) any later version.    |
|                                                                       |
| SU2 is distributed in the hope that it will be useful,                |
| but WITHOUT ANY WARRANTY; without even the implied warranty of        |
| MERCHANTABILITY or FITNESS FOR A PARTICULAR PURPOSE. See the GNU      |
| Lesser General Public License for more details.                       |
|                                                                       |
| You should have received a copy of the GNU Lesser General Public      |
| License along with SU2. If not, see <http://www.gnu.org/licenses/>.   |
-------------------------------------------------------------------------

Parsing config file for zone 0

----------------- Physical Case Definition ( Zone 0 ) -------------------
Compressible Euler equations.
Mach number: 1.7.
Angle of attack (AoA): 0 deg, and angle of sideslip (AoS): 0 deg.
Reading and writing binary SU2 native restart files.
Read flow solution from: solution_flow.dat.
Dimensional simulation.
The reference area is 1 m^2.
The semi-span will be computed using the max y(3D) value.
The reference length is 1 m.
Input mesh file name: mesh0.su2

--------------- Space Numerical Integration ( Zone 0 ) ------------------
Roe (with entropy fix = 0.001) solver for the flow inviscid terms.
Standard Roe without low-dissipation function.
Second order integration in space, with slope limiter.
Venkatakrishnan slope-limiting method, with constant: 0.001.
The reference element size is: 1. 
Gradient for upwind reconstruction: inverse-distance weighted Least-Squares.
Gradient for viscous and source terms: inverse-distance weighted Least-Squares.

--------------- Time Numerical Integration  ( Zone 0 ) ------------------
Local time stepping (steady state simulation).
Euler implicit method for the flow equations.
FGMRES is used for solving the linear system.
Using a ILU(0) preconditioning.
Convergence criteria of the linear solver: 1e-06.
Max number of linear iterations: 20.
CFL adaptation. Factor down: 0.1, factor up: 2,
                lower limit: 0.1, upper limit: 100,
                acceptable linear residual: 0.001.
Courant-Friedrichs-Lewy number:      0.1

------------------ Convergence Criteria  ( Zone 0 ) ---------------------
Maximum number of solver subiterations: 3000.
Begin convergence monitoring at iteration 10.
Residual minimum value: 1e-11.
Cauchy series min. value: 1e-10.
Number of Cauchy elements: 100.
Begin windowed time average at iteration 0.

-------------------- Output Information ( Zone 0 ) ----------------------
File writing frequency: 
+------------------------------------+
|                     File| Frequency|
+------------------------------------+
|                  RESTART|       100|
|                 PARAVIEW|       100|
|         SURFACE_PARAVIEW|       100|
+------------------------------------+
Writing the convergence history file every 1 inner iterations.
Writing the screen convergence history every 1 inner iterations.
The tabular file format is CSV (.csv).
Convergence history file name: history.
Forces breakdown file name: forces_breakdown.dat.
Surface file name: surface_flow.
Volume file name: flow.
Restart file name: restart_flow.dat.

------------- Config File Boundary Information ( Zone 0 ) ---------------
+-----------------------------------------------------------------------+
|                        Marker Type|                        Marker Name|
+-----------------------------------------------------------------------+
|                         Euler wall|                                  4|
|                                   |                                  5|
+-----------------------------------------------------------------------+
|                     Symmetry plane|                                  2|
+-----------------------------------------------------------------------+
|                   Riemann boundary|                                  1|
|                                   |                                  3|
+-----------------------------------------------------------------------+

-------------------- Output Preprocessing ( Zone 0 ) --------------------

WARNING: SURFACE_PRESSURE_DROP can only be computed for at least 2 surfaces (outlet, inlet, ...)

Screen output fields: INNER_ITER, WALL_TIME, RMS_DENSITY
History output group(s): ITER, RMS_RES
Convergence field(s): RMS_DENSITY
Warning: No (valid) fields chosen for time convergence monitoring. Time convergence monitoring inactive.
Volume output fields: COORDINATES, SOLUTION, PRIMITIVE

------------------- Geometry Preprocessing ( Zone 0 ) -------------------
Two dimensional problem.
2614 grid points before partitioning.
5034 volume elements before partitioning.
5 surface markers.
40 boundary elements in index 0 (Marker = 1).
50 boundary elements in index 1 (Marker = 2).
50 boundary elements in index 2 (Marker = 3).
37 boundary elements in index 3 (Marker = 4).
15 boundary elements in index 4 (Marker = 5).
Executing the partitioning functions.
Building the graph adjacency structure.
Calling ParMETIS... graph partitioning complete (303 edge cuts).
Distributing ParMETIS coloring.
Rebalancing vertices.
Rebalancing volume element connectivity.
Rebalancing markers and surface elements.
2926 vertices including ghost points. 
5336 interior elements including halo cells. 
5336 triangles.
Establishing MPI communication patterns.
Setting point connectivity.
Renumbering points (Reverse Cuthill McKee Ordering).
Recomputing point connectivity.
Setting element connectivity.
Checking the numerical grid orientation.
All volume elements are correctly orientend.
There has been a re-orientation of 198 LINE surface elements.
Identifying edges and vertices.
Setting the control volume structure.
Area of the computational grid: 0.922765.
Searching for the closest normal neighbors to the surfaces.
Storing a mapping from global to local point index.
Compute the surface curvature.
Max K: 80.4821. Mean K: 3.11267. Standard deviation K: 14.5031.
Checking for periodicity.
Computing mesh quality statistics for the dual control volumes.
+--------------------------------------------------------------+
|           Mesh Quality Metric|        Minimum|        Maximum|
+--------------------------------------------------------------+
|    Orthogonality Angle (deg.)|        80.2461|        89.9998|
|     CV Face Area Aspect Ratio|        1.00002|        6.79992|
|           CV Sub-Volume Ratio|        1.00001|        2.81985|
+--------------------------------------------------------------+
Finding max control volume width.
Communicating number of neighbors.
Wetted area = 0 m.
Area projection in the x-plane = 0 m, y-plane = 0 m.
Max. coordinate in the x-direction = -1e+10 m, y-direction = -1e+10 m.
Min. coordinate in the x-direction = 1e+10 m, y-direction = 1e+10 m.
Checking if Euler & Symmetry markers are straight/plane:
Boundary marker 4 is a single straight.
Boundary marker 5 is a single straight.
Boundary marker 2 is a single straight.
Computing wall distances.

-------------------- Solver Preprocessing ( Zone 0 ) --------------------
Inviscid flow: Computing density based on free-stream
temperature and pressure using the ideal gas law.
Force coefficients computed using free-stream values.

-- Models:
+------------------------------------------------------------------------------+
|          Viscosity Model|        Conductivity Model|              Fluid Model|
+------------------------------------------------------------------------------+
|                        -|                         -|         CoolProp library|
+------------------------------------------------------------------------------+
-- Fluid properties:
+------------------------------------------------------------------------------+
|                  Name|    Dim. value|    Ref. value|      Unit|Non-dim. value|
+------------------------------------------------------------------------------+
|          Gas Constant|       35.1516|             1|  N.m/kg.K|       35.1516|
|      Spec. Heat Ratio|             -|             -|         -|             -|
|     Critical Pressure|   1.41004e+06|             1|          |   1.41004e+06|
|  Critical Temperature|        564.09|             1|         K|        564.09|
+------------------------------------------------------------------------------+
-- Initial and free-stream conditions:
+------------------------------------------------------------------------------+
|                  Name|    Dim. value|    Ref. value|      Unit|Non-dim. value|
+------------------------------------------------------------------------------+
|       Static Pressure|    1.4999e+06|             1|        Pa|    1.4999e+06|
|               Density|       202.888|             1|    kg/m^3|       202.888|
|           Temperature|       569.844|             1|         K|       569.844|
|          Total Energy|        369670|             1|   m^2/s^2|        369670|
|            Velocity-X|       85.2978|             1|       m/s|       85.2978|
|            Velocity-Y|             0|             1|       m/s|             0|
|    Velocity Magnitude|       85.2978|             1|       m/s|       85.2978|
+------------------------------------------------------------------------------+
|           Mach Number|             -|             -|         -|           1.7|
+------------------------------------------------------------------------------+
Initialize Jacobian structure (Euler). MG level: 0.

------------------- Numerics Preprocessing ( Zone 0 ) -------------------

----------------- Integration Preprocessing ( Zone 0 ) ------------------

------------------- Iteration Preprocessing ( Zone 0 ) ------------------
Euler/Navier-Stokes/RANS fluid iteration.

------------------------------ Begin Solver -----------------------------

Simulation Run using the Single-zone Driver
+--------------------------------------+
|  Inner_Iter|   Time(sec)|    rms[Rho]|
+--------------------------------------+
|           0|  8.8261e-02|   -0.291965|
|           1|  8.8314e-02|   -0.296853|
|           2|  8.8331e-02|   -0.306184|
|           3|  8.8333e-02|   -0.323107|
|           4|  8.8379e-02|   -0.351943|
|           5|  8.8449e-02|   -0.393228|
|           6|  8.8515e-02|   -0.444607|
|           7|  8.8690e-02|   -0.502329|
|           8|  8.8971e-02|   -0.552038|
|           9|  8.9062e-02|   -0.600271|
|          10|  8.9294e-02|   -0.672004|
|          11|  8.9387e-02|   -0.799146|
|          12|  8.9430e-02|   -0.949599|
|          13|  8.9507e-02|   -1.103000|
|          14|  8.9599e-02|   -1.258135|
|          15|  8.9978e-02|   -1.412770|
|          16|  9.0018e-02|   -1.552047|
|          17|  9.0030e-02|   -1.667555|
|          18|  9.0003e-02|   -1.663218|
|          19|  8.9977e-02|   -1.750065|
|          20|  8.9951e-02|   -1.825096|
|          21|  8.9939e-02|   -1.842467|
|          22|  8.9917e-02|   -1.780755|
|          23|  8.9902e-02|   -1.783132|
|          24|  8.9883e-02|   -1.740676|
|          25|  8.9864e-02|   -1.706407|
|          26|  8.9842e-02|   -1.757661|
|          27|  8.9827e-02|   -1.748091|
|          28|  8.9850e-02|   -1.810724|
|          29|  8.9834e-02|   -1.807726|
|          30|  8.9877e-02|   -1.826135|
|          31|  8.9880e-02|   -1.753905|
|          32|  8.9869e-02|   -1.734120|
|          33|  8.9858e-02|   -1.776801|
|          34|  8.9845e-02|   -1.790075|
|          35|  8.9828e-02|   -1.797348|
|          36|  8.9816e-02|   -1.738706|
|          37|  8.9829e-02|   -1.744471|
|          38|  8.9818e-02|   -1.714785|
|          39|  8.9806e-02|   -1.711882|
|          40|  8.9830e-02|   -1.810461|
|          41|  8.9819e-02|   -1.808438|
|          42|  8.9818e-02|   -1.777536|
|          43|  8.9814e-02|   -1.824810|
|          44|  8.9808e-02|   -1.791049|
|          45|  8.9800e-02|   -1.812295|
|          46|  8.9793e-02|   -1.826666|
|          47|  8.9782e-02|   -1.775762|
|          48|  8.9777e-02|   -1.816832|
|          49|  8.9772e-02|   -1.796982|
|          50|  8.9768e-02|   -1.825670|
|          51|  8.9767e-02|   -1.791279|
|          52|  8.9763e-02|   -1.749103|
|          53|  8.9756e-02|   -1.786200|
|          54|  8.9763e-02|   -1.860137|
|          55|  8.9759e-02|   -1.800752|
|          56|  8.9750e-02|   -1.755020|
|          57|  8.9745e-02|   -1.789395|
|          58|  8.9739e-02|   -1.859272|
|          59|  8.9734e-02|   -1.805275|
|          60|  8.9728e-02|   -1.757875|
|          61|  8.9722e-02|   -1.789533|
|          62|  8.9716e-02|   -1.859983|
|          63|  8.9714e-02|   -1.805434|
|          64|  8.9810e-02|   -1.753107|
|          65|  8.9837e-02|   -1.788745|
|          66|  8.9834e-02|   -1.859313|
|          67|  8.9829e-02|   -1.801668|
|          68|  8.9819e-02|   -1.754642|
|          69|  8.9812e-02|   -1.790122|
|          70|  8.9806e-02|   -1.857312|
|          71|  8.9799e-02|   -1.803322|
|          72|  8.9793e-02|   -1.755202|
|          73|  8.9787e-02|   -1.788182|
|          74|  8.9782e-02|   -1.859525|
|          75|  8.9776e-02|   -1.804249|
|          76|  8.9768e-02|   -1.752895|
|          77|  8.9765e-02|   -1.789159|
|          78|  8.9760e-02|   -1.860786|
|          79|  8.9755e-02|   -1.801611|
|          80|  8.9748e-02|   -1.753677|
|          81|  8.9745e-02|   -1.790161|
|          82|  8.9743e-02|   -1.858377|
|          83|  8.9739e-02|   -1.803532|
|          84|  8.9737e-02|   -1.754700|
|          85|  8.9734e-02|   -1.787999|
|          86|  8.9730e-02|   -1.859883|
|          87|  8.9726e-02|   -1.804281|
|          88|  8.9725e-02|   -1.752556|
|          89|  8.9722e-02|   -1.788951|
|          90|  8.9740e-02|   -1.860573|
|          91|  8.9737e-02|   -1.801937|
|          92|  8.9733e-02|   -1.754075|
|          93|  8.9730e-02|   -1.790137|
|          94|  8.9728e-02|   -1.858475|
|          95|  8.9724e-02|   -1.803419|
|          96|  8.9721e-02|   -1.754503|
|          97|  8.9718e-02|   -1.787888|
|          98|  8.9716e-02|   -1.860048|
|          99|  8.9715e-02|   -1.804443|
|         100|  8.9713e-02|   -1.752772|
+-----------------------------------------------------------------------+
|        File Writing Summary       |              Filename             |
+-----------------------------------------------------------------------+
|SU2 binary restart                 |restart_flow.dat                   |
|Paraview                           |flow.vtu                           |
|Paraview surface                   |surface_flow.vtu                   |
+-----------------------------------------------------------------------+
+--------------------------------------+
|  Inner_Iter|   Time(sec)|    rms[Rho]|
+--------------------------------------+
|         101|  8.9742e-02|   -1.789019|
|         102|  8.9742e-02|   -1.861160|
|         103|  8.9740e-02|   -1.802403|
|         104|  8.9740e-02|   -1.753817|
|         105|  8.9738e-02|   -1.789790|
|         106|  8.9739e-02|   -1.858161|
|         107|  8.9736e-02|   -1.802898|
|         108|  8.9737e-02|   -1.754263|
|         109|  8.9735e-02|   -1.788008|
|         110|  8.9735e-02|   -1.860146|
|         111|  8.9734e-02|   -1.804557|
|         112|  8.9734e-02|   -1.752727|
|         113|  8.9732e-02|   -1.788926|
|         114|  8.9732e-02|   -1.861080|
|         115|  8.9730e-02|   -1.801860|
|         116|  8.9727e-02|   -1.753550|
|         117|  8.9723e-02|   -1.790063|
|         118|  8.9717e-02|   -1.912028|
|         119|  8.9710e-02|   -2.059883|
|         120|  8.9707e-02|   -2.153553|
|         121|  8.9737e-02|   -2.021747|
|         122|  8.9740e-02|   -2.245630|
|         123|  8.9745e-02|   -2.066220|
|         124|  8.9749e-02|   -1.978381|
|         125|  8.9755e-02|   -2.129204|
|         126|  8.9755e-02|   -1.981278|
|         127|  8.9753e-02|   -1.853957|
|         128|  8.9748e-02|   -1.856686|
|         129|  8.9741e-02|   -1.972289|
|         130|  8.9733e-02|   -1.875950|
|         131|  8.9727e-02|   -1.935334|
|         132|  8.9724e-02|   -1.983401|
|         133|  8.9718e-02|   -1.886253|
|         134|  8.9712e-02|   -1.941728|
|         135|  8.9708e-02|   -1.863673|
|         136|  8.9704e-02|   -1.896612|
|         137|  8.9703e-02|   -1.869583|
|         138|  8.9704e-02|   -1.905908|
|         139|  8.9703e-02|   -2.004234|
|         140|  8.9707e-02|   -1.916005|
|         141|  8.9709e-02|   -1.854460|
|         142|  8.9706e-02|   -1.881498|
|         143|  8.9698e-02|   -1.997519|
|         144|  8.9694e-02|   -2.032824|
|         145|  8.9693e-02|   -1.972041|
|         146|  8.9692e-02|   -1.947587|
|         147|  8.9693e-02|   -2.063625|
|         148|  8.9696e-02|   -1.978525|
|         149|  8.9698e-02|   -1.906713|
|         150|  8.9699e-02|   -1.945919|
|         151|  8.9697e-02|   -1.818307|
|         152|  8.9697e-02|   -1.732085|
|         153|  8.9767e-02|   -1.771665|
|         154|  8.9760e-02|   -1.793554|
|         155|  8.9754e-02|   -1.838075|
|         156|  8.9746e-02|   -1.879786|
|         157|  8.9753e-02|   -1.856687|
|         158|  8.9745e-02|   -1.812853|
|         159|  8.9737e-02|   -1.817436|
|         160|  8.9729e-02|   -1.830883|
|         161|  8.9720e-02|   -1.828820|
|         162|  8.9714e-02|   -1.865596|
|         163|  8.9708e-02|   -1.838251|
|         164|  8.9706e-02|   -1.868224|
|         165|  8.9698e-02|   -1.857294|
|         166|  8.9694e-02|   -1.805748|
|         167|  8.9689e-02|   -1.753984|
|         168|  8.9681e-02|   -1.806915|
|         169|  8.9674e-02|   -1.886648|
|         170|  8.9665e-02|   -1.840458|
|         171|  8.9657e-02|   -1.799821|
|         172|  8.9649e-02|   -1.733332|
|         173|  8.9642e-02|   -1.762807|
|         174|  8.9635e-02|   -1.815002|
|         175|  8.9628e-02|   -1.849890|
|         176|  8.9656e-02|   -1.978247|
|         177|  8.9650e-02|   -1.895502|
|         178|  8.9645e-02|   -1.860797|
|         179|  8.9642e-02|   -1.823059|
|         180|  8.9640e-02|   -1.810645|
|         181|  8.9637e-02|   -1.808846|
|         182|  8.9637e-02|   -1.798575|
|         183|  8.9635e-02|   -1.776056|
|         184|  8.9630e-02|   -1.883136|
|         185|  8.9625e-02|   -1.917273|
|         186|  8.9621e-02|   -1.991632|
|         187|  8.9618e-02|   -1.939943|
|         188|  8.9619e-02|   -1.944400|
|         189|  8.9617e-02|   -1.908848|
|         190|  8.9618e-02|   -1.938021|
|         191|  8.9622e-02|   -1.907152|
|         192|  8.9622e-02|   -1.994786|
|         193|  8.9621e-02|   -1.952093|
|         194|  8.9621e-02|   -1.867614|
|         195|  8.9618e-02|   -1.900155|
|         196|  8.9615e-02|   -1.960306|
|         197|  8.9613e-02|   -1.856001|
|         198|  8.9613e-02|   -1.903814|
|         199|  8.9609e-02|   -1.854377|
|         200|  8.9636e-02|   -1.760383|
+-----------------------------------------------------------------------+
|        File Writing Summary       |              Filename             |
+-----------------------------------------------------------------------+
|SU2 binary restart                 |restart_flow.dat                   |
|Paraview                           |flow.vtu                           |
|Paraview surface                   |surface_flow.vtu                   |
+-----------------------------------------------------------------------+
+--------------------------------------+
|  Inner_Iter|   Time(sec)|    rms[Rho]|
+--------------------------------------+
|         201|  8.9688e-02|   -1.857704|
|         202|  8.9727e-02|   -1.906674|
|         203|  9.0031e-02|   -2.037602|
|         204|  9.0301e-02|   -1.899701|
|         205|  9.0439e-02|   -1.865252|
|         206|  9.0519e-02|   -1.807055|
|         207|  9.0568e-02|   -1.805752|
|         208|  9.0605e-02|   -1.853449|
|         209|  9.0632e-02|   -1.856991|
|         210|  9.0653e-02|   -1.884992|
|         211|  9.0715e-02|   -1.939178|
|         212|  9.0737e-02|   -1.945263|
|         213|  9.0758e-02|   -1.988039|
|         214|  9.0780e-02|   -1.971748|
|         215|  9.0801e-02|   -1.918606|
|         216|  9.0823e-02|   -1.856589|
|         217|  9.0844e-02|   -1.786123|
|         218|  9.0858e-02|   -1.803900|
|         219|  9.0879e-02|   -1.822805|
|         220|  9.0897e-02|   -1.834671|
|         221|  9.0915e-02|   -1.866749|
|         222|  9.0982e-02|   -1.914132|
|         223|  9.1027e-02|   -1.950497|
|         224|  9.1045e-02|   -1.951648|
|         225|  9.1062e-02|   -1.959675|
|         226|  9.1080e-02|   -1.973215|
|         227|  9.1096e-02|   -2.007440|
|         228|  9.1105e-02|   -2.002406|
|         229|  9.1123e-02|   -2.018056|
|         230|  9.1139e-02|   -1.970916|
|         231|  9.1155e-02|   -1.994468|
|         232|  9.1162e-02|   -1.987315|
|         233|  9.1176e-02|   -1.991645|
|         234|  9.1193e-02|   -1.987758|
|         235|  9.1208e-02|   -1.938406|
|         236|  9.1214e-02|   -1.941123|
|         237|  9.1229e-02|   -1.955418|
|         238|  9.1245e-02|   -1.965887|
|         239|  9.1254e-02|   -2.033985|
|         240|  9.1268e-02|   -1.968766|
|         241|  9.1286e-02|   -2.041756|
|         242|  9.1300e-02|   -2.080093|
|         243|  9.1314e-02|   -1.946524|
|         244|  9.1329e-02|   -1.897714|
|         245|  9.1343e-02|   -2.108282|
|         246|  9.1348e-02|   -2.111748|
|         247|  9.1363e-02|   -2.129152|
|         248|  9.1377e-02|   -2.146684|
|         249|  9.1391e-02|   -2.164709|
|         250|  9.1398e-02|   -2.180138|
|         251|  9.1413e-02|   -2.090947|
|         252|  9.1428e-02|   -2.053114|
|         253|  9.1438e-02|   -2.086587|
|         254|  9.1448e-02|   -2.098524|
|         255|  9.1465e-02|   -2.252576|
|         256|  9.1482e-02|   -2.097068|
|         257|  9.1501e-02|   -2.294814|
|         258|  9.1523e-02|   -2.143484|
|         259|  9.1541e-02|   -1.950241|
|         260|  9.1559e-02|   -1.931653|
|         261|  9.1577e-02|   -2.066884|
|         262|  9.1593e-02|   -2.024833|
|         263|  9.1609e-02|   -1.846619|
|         264|  9.1625e-02|   -1.779781|
|         265|  9.1639e-02|   -1.751057|
|         266|  9.1653e-02|   -1.879823|
|         267|  9.1664e-02|   -1.881542|
|         268|  9.1672e-02|   -1.961335|
|         269|  9.1685e-02|   -1.927147|
|         270|  9.1697e-02|   -1.941040|
|         271|  9.1710e-02|   -1.954156|
|         272|  9.1715e-02|   -1.932284|
|         273|  9.1728e-02|   -1.972578|
|         274|  9.1741e-02|   -1.973274|
|         275|  9.1753e-02|   -1.997904|
|         276|  9.1762e-02|   -1.977089|
|         277|  9.1770e-02|   -1.954699|
|         278|  9.1783e-02|   -1.978062|
|         279|  9.1795e-02|   -1.970256|
|         280|  9.1801e-02|   -1.974668|
|         281|  9.1835e-02|   -1.969895|
|         282|  9.1847e-02|   -1.905866|
|         283|  9.1860e-02|   -1.792287|
|         284|  9.1871e-02|   -1.766463|
|         285|  9.1883e-02|   -1.803836|
|         286|  9.1889e-02|   -1.862672|
|         287|  9.1898e-02|   -1.892535|
|         288|  9.1910e-02|   -2.047002|
|         289|  9.1921e-02|   -2.072900|
|         290|  9.1932e-02|   -2.052709|
|         291|  9.1936e-02|   -2.040802|
|         292|  9.1950e-02|   -1.966630|
|         293|  9.1963e-02|   -1.962158|
|         294|  9.1984e-02|   -1.961771|
|         295|  9.2005e-02|   -1.934382|
|         296|  9.2028e-02|   -1.938249|
|         297|  9.2048e-02|   -1.953109|
|         298|  9.2059e-02|   -1.966634|
|         299|  9.2070e-02|   -2.017648|
|         300|  9.2081e-02|   -2.036847|
+-----------------------------------------------------------------------+
|        File Writing Summary       |              Filename             |
+-----------------------------------------------------------------------+
|SU2 binary restart                 |restart_flow.dat                   |
|Paraview                           |flow.vtu                           |
|Paraview surface                   |surface_flow.vtu                   |
+-----------------------------------------------------------------------+
+--------------------------------------+
|  Inner_Iter|   Time(sec)|    rms[Rho]|
+--------------------------------------+
|         301|  9.2102e-02|   -2.004723|
|         302|  9.2113e-02|   -2.036354|
|         303|  9.2125e-02|   -2.022599|
|         304|  9.2135e-02|   -2.053413|
|         305|  9.2142e-02|   -2.101021|
|         306|  9.2153e-02|   -2.109732|
|         307|  9.2164e-02|   -2.009782|
|         308|  9.2178e-02|   -1.856692|
|         309|  9.2188e-02|   -1.924980|
|         310|  9.2193e-02|   -1.937087|
|         311|  9.2202e-02|   -1.989827|
|         312|  9.2212e-02|   -2.006026|
|         313|  9.2221e-02|   -2.018145|
|         314|  9.2230e-02|   -2.028520|
|         315|  9.2234e-02|   -2.042365|
|         316|  9.2244e-02|   -2.051785|
|         317|  9.2253e-02|   -2.064982|
|         318|  9.2263e-02|   -2.101881|
|         319|  9.2267e-02|   -2.086705|
|         320|  9.2277e-02|   -2.080263|
|         321|  9.2289e-02|   -2.222124|
|         322|  9.2300e-02|   -2.046030|
|         323|  9.2312e-02|   -2.080710|
|         324|  9.2323e-02|   -1.993826|
|         325|  9.2333e-02|   -2.064423|
|         326|  9.2341e-02|   -2.098613|
|         327|  9.2354e-02|   -2.106585|
|         328|  9.2366e-02|   -2.125195|
|         329|  9.2375e-02|   -2.157426|
|         330|  9.2384e-02|   -2.214343|
|         331|  9.2393e-02|   -2.149967|
|         332|  9.2403e-02|   -2.118684|
|         333|  9.2408e-02|   -2.330895|
|         334|  9.2436e-02|   -2.065764|
|         335|  9.2445e-02|   -2.164346|
|         336|  9.2454e-02|   -2.267874|
|         337|  9.2462e-02|   -2.292777|
|         338|  9.2472e-02|   -2.136536|
|         339|  9.2481e-02|   -2.205721|
|         340|  9.2485e-02|   -2.333581|
|         341|  9.2494e-02|   -2.118680|
|         342|  9.2503e-02|   -2.370859|
|         343|  9.2511e-02|   -2.432708|
|         344|  9.2520e-02|   -2.118689|
|         345|  9.2531e-02|   -2.315816|
|         346|  9.2540e-02|   -2.130860|
|         347|  9.2549e-02|   -2.010820|
|         348|  9.2556e-02|   -2.060090|
|         349|  9.2564e-02|   -2.072221|
|         350|  9.2569e-02|   -2.080387|
|         351|  9.2573e-02|   -2.097341|
|         352|  9.2580e-02|   -2.112662|
|         353|  9.2588e-02|   -2.120955|
|         354|  9.2596e-02|   -2.127990|
|         355|  9.2603e-02|   -2.134340|
|         356|  9.2611e-02|   -2.135967|
|         357|  9.2618e-02|   -2.141579|
|         358|  9.2626e-02|   -2.159694|
|         359|  9.2634e-02|   -2.149877|
|         360|  9.2641e-02|   -2.164198|
|         361|  9.2650e-02|   -2.148911|
|         362|  9.2658e-02|   -2.181822|
|         363|  9.2666e-02|   -2.159473|
|         364|  9.2673e-02|   -2.181673|
|         365|  9.2678e-02|   -2.156829|
|         366|  9.2680e-02|   -2.058773|
|         367|  9.2688e-02|   -2.212999|
|         368|  9.2696e-02|   -2.097539|
|         369|  9.2704e-02|   -2.088290|
|         370|  9.2712e-02|   -2.224209|
|         371|  9.2719e-02|   -2.314754|
|         372|  9.2727e-02|   -2.030397|
|         373|  9.2731e-02|   -2.234371|
|         374|  9.2742e-02|   -2.180724|
|         375|  9.2750e-02|   -2.293353|
|         376|  9.2764e-02|   -2.114566|
|         377|  9.2771e-02|   -1.929668|
|         378|  9.2777e-02|   -1.967540|
|         379|  9.2783e-02|   -2.046923|
|         380|  9.2789e-02|   -2.059973|
|         381|  9.2794e-02|   -2.070989|
|         382|  9.2796e-02|   -2.075931|
|         383|  9.2802e-02|   -2.070643|
|         384|  9.2807e-02|   -2.083012|
|         385|  9.2814e-02|   -2.102440|
|         386|  9.2831e-02|   -2.127746|
|         387|  9.2838e-02|   -2.126960|
|         388|  9.2845e-02|   -1.968109|
|         389|  9.2851e-02|   -2.103696|
|         390|  9.2875e-02|   -2.128145|
|         391|  9.2916e-02|   -2.133294|
|         392|  9.2929e-02|   -2.133145|
|         393|  9.2943e-02|   -2.131459|
|         394|  9.2949e-02|   -2.136882|
|         395|  9.2955e-02|   -2.140913|
|         396|  9.2961e-02|   -2.037550|
|         397|  9.2967e-02|   -2.091441|
|         398|  9.2975e-02|   -2.129068|
|         399|  9.3023e-02|   -2.036857|
|         400|  9.3209e-02|   -2.054821|
+-----------------------------------------------------------------------+
|        File Writing Summary       |              Filename             |
+-----------------------------------------------------------------------+
|SU2 binary restart                 |restart_flow.dat                   |
|Paraview                           |flow.vtu                           |
|Paraview surface                   |surface_flow.vtu                   |
+-----------------------------------------------------------------------+
+--------------------------------------+
|  Inner_Iter|   Time(sec)|    rms[Rho]|
+--------------------------------------+
|         401|  9.3309e-02|   -2.063322|
|         402|  9.3384e-02|   -2.072707|
|         403|  9.3397e-02|   -2.078939|
|         404|  9.3410e-02|   -2.054325|
|         405|  9.3430e-02|   -2.084328|
|         406|  9.3435e-02|   -2.015360|
|         407|  9.3448e-02|   -2.096776|
|         408|  9.3447e-02|   -2.037071|
|         409|  9.3462e-02|   -2.124811|
|         410|  9.3467e-02|   -2.077640|
|         411|  9.3469e-02|   -2.081253|
|         412|  9.3469e-02|   -2.109929|
|         413|  9.3473e-02|   -2.111717|
|         414|  9.3475e-02|   -2.120132|
|         415|  9.3474e-02|   -2.075505|
|         416|  9.3479e-02|   -2.170000|
|         417|  9.3483e-02|   -2.201146|
|         418|  9.3481e-02|   -2.211480|
|         419|  9.3483e-02|   -2.154726|
|         420|  9.3487e-02|   -2.163530|
|         421|  9.3487e-02|   -2.128333|
|         422|  9.3489e-02|   -2.233854|
|         423|  9.3493e-02|   -2.234644|
|         424|  9.3492e-02|   -2.237160|
|         425|  9.3494e-02|   -2.066962|
|         426|  9.3499e-02|   -2.235078|
|         427|  9.3503e-02|   -2.238984|
|         428|  9.3502e-02|   -2.258654|
|         429|  9.3506e-02|   -2.268452|
|         430|  9.3509e-02|   -2.169447|
|         431|  9.3508e-02|   -2.096130|
|         432|  9.3510e-02|   -2.099387|
|         433|  9.3514e-02|   -2.108262|
|         434|  9.3512e-02|   -2.297715|
|         435|  9.3513e-02|   -2.305356|
|         436|  9.3517e-02|   -2.177799|
|         437|  9.3520e-02|   -2.149930|
|         438|  9.3532e-02|   -2.162654|
|         439|  9.3536e-02|   -2.176365|
|         440|  9.3535e-02|   -2.189241|
|         441|  9.3537e-02|   -2.201134|
|         442|  9.3543e-02|   -2.213760|
|         443|  9.3547e-02|   -2.161016|
|         444|  9.3545e-02|   -2.306721|
|         445|  9.3547e-02|   -2.167767|
|         446|  9.3550e-02|   -2.318732|
|         447|  9.3550e-02|   -2.328914|
|         448|  9.3552e-02|   -2.190715|
|         449|  9.3555e-02|   -2.325689|
|         450|  9.3558e-02|   -2.105466|
|         451|  9.3556e-02|   -2.177079|
|         452|  9.3559e-02|   -2.190725|
|         453|  9.3562e-02|   -2.117783|
|         454|  9.3562e-02|   -2.211591|
|         455|  9.3562e-02|   -2.223914|
|         456|  9.3565e-02|   -2.235152|
|         457|  9.3567e-02|   -2.245805|
|         458|  9.3577e-02|   -2.125651|
|         459|  9.3581e-02|   -2.260613|
|         460|  9.3591e-02|   -2.320961|
|         461|  9.3622e-02|   -2.328955|
|         462|  9.3635e-02|   -2.155086|
|         463|  9.3648e-02|   -2.340492|
|         464|  9.3652e-02|   -2.348744|
|         465|  9.3656e-02|   -2.362097|
|         466|  9.3661e-02|   -2.197033|
|         467|  9.3666e-02|   -2.157722|
|         468|  9.3670e-02|   -2.174006|
|         469|  9.3673e-02|   -2.187851|
|         470|  9.3677e-02|   -2.200885|
|         471|  9.3678e-02|   -2.225201|
|         472|  9.3680e-02|   -2.140829|
|         473|  9.3683e-02|   -2.186762|
|         474|  9.3684e-02|   -2.198278|
|         475|  9.3687e-02|   -2.321377|
|         476|  9.3691e-02|   -2.206812|
|         477|  9.3697e-02|   -2.289346|
|         478|  9.3698e-02|   -2.242923|
|         479|  9.3702e-02|   -2.123088|
|         480|  9.3705e-02|   -2.157931|
|         481|  9.3707e-02|   -2.177644|
|         482|  9.3705e-02|   -2.195721|
|         483|  9.3707e-02|   -2.212186|
|         484|  9.3713e-02|   -2.224533|
|         485|  9.3721e-02|   -2.247906|
|         486|  9.3724e-02|   -2.286994|
|         487|  9.3726e-02|   -2.288880|
|         488|  9.3726e-02|   -2.171385|
|         489|  9.3732e-02|   -2.300044|
|         490|  9.3734e-02|   -2.220438|
|         491|  9.3737e-02|   -2.061560|
|         492|  9.3739e-02|   -2.156107|
|         493|  9.3740e-02|   -2.168667|
|         494|  9.3750e-02|   -2.177833|
|         495|  9.3760e-02|   -2.186505|
|         496|  9.3768e-02|   -2.194724|
|         497|  9.3776e-02|   -2.203151|
|         498|  9.3785e-02|   -2.217368|
|         499|  9.3794e-02|   -2.240786|
|         500|  9.3799e-02|   -2.273657|
+-----------------------------------------------------------------------+
|        File Writing Summary       |              Filename             |
+-----------------------------------------------------------------------+
|SU2 binary restart                 |restart_flow.dat                   |
|Paraview                           |flow.vtu                           |
|Paraview surface                   |surface_flow.vtu                   |
+-----------------------------------------------------------------------+
+--------------------------------------+
|  Inner_Iter|   Time(sec)|    rms[Rho]|
+--------------------------------------+
|         501|  9.3809e-02|   -2.237857|
|         502|  9.3811e-02|   -2.127829|
|         503|  9.3814e-02|   -2.177170|
|         504|  9.3838e-02|   -2.191978|
|         505|  9.3841e-02|   -2.205525|
|         506|  9.3844e-02|   -2.102684|
|         507|  9.3847e-02|   -2.223930|
|         508|  9.3851e-02|   -2.234992|
|         509|  9.3856e-02|   -2.242577|
|         510|  9.3895e-02|   -2.261670|
|         511|  9.4002e-02|   -2.124675|
|         512|  9.4056e-02|   -2.155944|
|         513|  9.4067e-02|   -2.322396|
|         514|  9.4080e-02|   -2.196571|
|         515|  9.4090e-02|   -2.108657|
|         516|  9.4103e-02|   -2.138395|
|         517|  9.4111e-02|   -2.155621|
|         518|  9.4119e-02|   -2.167213|
|         519|  9.4128e-02|   -2.178242|
|         520|  9.4129e-02|   -2.189182|
|         521|  9.4130e-02|   -2.199711|
|         522|  9.4137e-02|   -2.210091|
|         523|  9.4156e-02|   -2.219874|
|         524|  9.4158e-02|   -2.229414|
|         525|  9.4160e-02|   -2.238469|
|         526|  9.4161e-02|   -2.254761|
|         527|  9.4162e-02|   -2.314814|
|         528|  9.4172e-02|   -2.114878|
|         529|  9.4184e-02|   -2.327835|
|         530|  9.4187e-02|   -2.125538|
|         531|  9.4188e-02|   -2.339320|
|         532|  9.4192e-02|   -2.135967|
|         533|  9.4196e-02|   -2.322649|
|         534|  9.4198e-02|   -2.336044|
|         535|  9.4204e-02|   -2.348645|
|         536|  9.4217e-02|   -2.186465|
|         537|  9.4219e-02|   -2.359777|
|         538|  9.4246e-02|   -2.195935|
|         539|  9.4249e-02|   -2.338851|
|         540|  9.4260e-02|   -2.353751|
|         541|  9.4262e-02|   -2.367822|
|         542|  9.4264e-02|   -2.252954|
|         543|  9.4265e-02|   -2.385974|
|         544|  9.4268e-02|   -2.255118|
|         545|  9.4271e-02|   -2.373644|
|         546|  9.4273e-02|   -2.156930|
|         547|  9.4274e-02|   -2.286872|
|         548|  9.4276e-02|   -2.376494|
|         549|  9.4276e-02|   -2.122841|
|         550|  9.4279e-02|   -2.170290|
|         551|  9.4282e-02|   -2.183661|
|         552|  9.4283e-02|   -2.281975|
|         553|  9.4284e-02|   -2.386151|
|         554|  9.4286e-02|   -2.282641|
|         555|  9.4322e-02|   -2.151770|
|         556|  9.4331e-02|   -2.167347|
|         557|  9.4337e-02|   -2.182928|
|         558|  9.4344e-02|   -2.197182|
|         559|  9.4346e-02|   -2.211428|
|         560|  9.4349e-02|   -2.158264|
|         561|  9.4352e-02|   -2.231803|
|         562|  9.4356e-02|   -2.397867|
|         563|  9.4395e-02|   -2.260192|
|         564|  9.4478e-02|   -2.403065|
|         565|  9.4492e-02|   -2.416277|
|         566|  9.4498e-02|   -2.274508|
|         567|  9.4501e-02|   -2.410593|
|         568|  9.4503e-02|   -2.275960|
|         569|  9.4504e-02|   -2.175879|
|         570|  9.4506e-02|   -2.191059|
|         571|  9.4507e-02|   -2.205941|
|         572|  9.4510e-02|   -2.220290|
|         573|  9.4512e-02|   -2.167077|
|         574|  9.4519e-02|   -2.240360|
|         575|  9.4522e-02|   -2.253414|
|         576|  9.4524e-02|   -2.392742|
|         577|  9.4526e-02|   -2.261122|
|         578|  9.4527e-02|   -2.399916|
|         579|  9.4529e-02|   -2.397465|
|         580|  9.4531e-02|   -2.274172|
|         581|  9.4535e-02|   -2.190188|
|         582|  9.4537e-02|   -2.205703|
|         583|  9.4539e-02|   -2.220593|
|         584|  9.4541e-02|   -2.248191|
|         585|  9.4542e-02|   -2.182314|
|         586|  9.4544e-02|   -2.380237|
|         587|  9.4546e-02|   -2.394652|
|         588|  9.4548e-02|   -2.259328|
|         589|  9.4550e-02|   -2.405480|
|         590|  9.4552e-02|   -2.266116|
|         591|  9.4554e-02|   -2.409224|
|         592|  9.4564e-02|   -2.287881|
|         593|  9.4568e-02|   -2.158942|
|         594|  9.4570e-02|   -2.175169|
|         595|  9.4572e-02|   -2.191041|
|         596|  9.4575e-02|   -2.207595|
|         597|  9.4577e-02|   -2.221993|
|         598|  9.4579e-02|   -2.235830|
|         599|  9.4581e-02|   -2.249083|
|         600|  9.4604e-02|   -2.174985|
+-----------------------------------------------------------------------+
|        File Writing Summary       |              Filename             |
+-----------------------------------------------------------------------+
|SU2 binary restart                 |restart_flow.dat                   |
|Paraview                           |flow.vtu                           |
|Paraview surface                   |surface_flow.vtu                   |
+-----------------------------------------------------------------------+
+--------------------------------------+
|  Inner_Iter|   Time(sec)|    rms[Rho]|
+--------------------------------------+
|         601|  9.4614e-02|   -2.266032|
|         602|  9.4621e-02|   -2.243292|
|         603|  9.4624e-02|   -2.369352|
|         604|  9.4627e-02|   -2.263651|
|         605|  9.4628e-02|   -2.335142|
|         606|  9.4633e-02|   -2.136140|
|         607|  9.4634e-02|   -2.135999|
|         608|  9.4634e-02|   -2.179676|
|         609|  9.4635e-02|   -2.192536|
|         610|  9.4637e-02|   -2.204464|
|         611|  9.4640e-02|   -2.215842|
|         612|  9.4641e-02|   -2.226880|
|         613|  9.4642e-02|   -2.237348|
|         614|  9.4642e-02|   -2.247307|
|         615|  9.4643e-02|   -2.256816|
|         616|  9.4641e-02|   -2.237186|
|         617|  9.4642e-02|   -2.243505|
|         618|  9.4643e-02|   -2.311184|
|         619|  9.4644e-02|   -2.319876|
|         620|  9.4647e-02|   -2.223867|
|         621|  9.4651e-02|   -2.204240|
|         622|  9.4662e-02|   -2.216218|
|         623|  9.4679e-02|   -2.164489|
|         624|  9.4714e-02|   -2.323069|
|         625|  9.4738e-02|   -2.235855|
|         626|  9.4752e-02|   -2.331456|
|         627|  9.4757e-02|   -2.246803|
|         628|  9.4768e-02|   -2.327847|
|         629|  9.4792e-02|   -2.197117|
|         630|  9.4801e-02|   -2.158785|
|         631|  9.4805e-02|   -2.213944|
|         632|  9.4806e-02|   -2.239562|
|         633|  9.4807e-02|   -2.323351|
|         634|  9.4809e-02|   -2.241726|
|         635|  9.4810e-02|   -2.194146|
|         636|  9.4811e-02|   -2.152699|
|         637|  9.4815e-02|   -2.210230|
|         638|  9.4816e-02|   -2.325791|
|         639|  9.4817e-02|   -2.232359|
|         640|  9.4818e-02|   -2.332566|
|         641|  9.4819e-02|   -2.192573|
|         642|  9.4822e-02|   -2.147347|
|         643|  9.4874e-02|   -2.325172|
|         644|  9.4920e-02|   -2.335267|
|         645|  9.4929e-02|   -2.237275|
|         646|  9.4933e-02|   -2.175561|
|         647|  9.4934e-02|   -2.189535|
|         648|  9.4937e-02|   -2.202133|
|         649|  9.4938e-02|   -2.146754|
|         650|  9.4939e-02|   -2.322838|
|         651|  9.4941e-02|   -2.221794|
|         652|  9.4942e-02|   -2.345464|
|         653|  9.4942e-02|   -2.232093|
|         654|  9.4943e-02|   -2.340625|
|         655|  9.4944e-02|   -2.239372|
|         656|  9.4949e-02|   -2.179688|
|         657|  9.4950e-02|   -2.192694|
|         658|  9.4951e-02|   -2.205344|
|         659|  9.4951e-02|   -2.139046|
|         660|  9.4953e-02|   -2.328943|
|         661|  9.4953e-02|   -2.341740|
|         662|  9.4953e-02|   -2.224964|
|         663|  9.4954e-02|   -2.354331|
|         664|  9.4954e-02|   -2.235859|
|         665|  9.4954e-02|   -2.343768|
|         666|  9.4955e-02|   -2.195947|
|         667|  9.4955e-02|   -2.352643|
|         668|  9.4956e-02|   -2.238700|
|         669|  9.4957e-02|   -2.365490|
|         670|  9.4958e-02|   -2.250247|
|         671|  9.4958e-02|   -2.163152|
|         672|  9.4958e-02|   -2.175433|
|         673|  9.4960e-02|   -2.191478|
|         674|  9.4960e-02|   -2.205190|
|         675|  9.4961e-02|   -2.218507|
|         676|  9.4962e-02|   -2.142483|
|         677|  9.4963e-02|   -2.357807|
|         678|  9.4963e-02|   -2.370395|
|         679|  9.4964e-02|   -2.222031|
|         680|  9.4964e-02|   -2.370304|
|         681|  9.4961e-02|   -2.233383|
|         682|  9.4962e-02|   -2.370266|
|         683|  9.4963e-02|   -2.371526|
|         684|  9.4963e-02|   -2.252195|
|         685|  9.4963e-02|   -2.175342|
|         686|  9.4961e-02|   -2.189711|
|         687|  9.4961e-02|   -2.203312|
|         688|  9.4961e-02|   -2.215285|
|         689|  9.4962e-02|   -2.230408|
|         690|  9.4963e-02|   -2.155424|
|         691|  9.4966e-02|   -2.360082|
|         692|  9.4967e-02|   -2.372230|
|         693|  9.4967e-02|   -2.227508|
|         694|  9.4966e-02|   -2.353701|
|         695|  9.4965e-02|   -2.366785|
|         696|  9.4966e-02|   -2.245040|
|         697|  9.4969e-02|   -2.365864|
|         698|  9.4973e-02|   -2.371322|
|         699|  9.4974e-02|   -2.371172|
|         700|  9.4974e-02|   -2.192745|
+-----------------------------------------------------------------------+
|        File Writing Summary       |              Filename             |
+-----------------------------------------------------------------------+
|SU2 binary restart                 |restart_flow.dat                   |
|Paraview                           |flow.vtu                           |
|Paraview surface                   |surface_flow.vtu                   |
+-----------------------------------------------------------------------+
+--------------------------------------+
|  Inner_Iter|   Time(sec)|    rms[Rho]|
+--------------------------------------+
|         701|  9.4978e-02|   -2.154409|
|         702|  9.4981e-02|   -2.366296|
|         703|  9.4981e-02|   -2.271035|
|         704|  9.4981e-02|   -2.378613|
|         705|  9.4981e-02|   -2.201001|
|         706|  9.4980e-02|   -2.158022|
|         707|  9.4979e-02|   -2.373883|
|         708|  9.4981e-02|   -2.266034|
|         709|  9.4982e-02|   -2.342174|
|         710|  9.4984e-02|   -2.196789|
|         711|  9.4984e-02|   -2.203068|
|         712|  9.4986e-02|   -2.217403|
|         713|  9.4990e-02|   -2.231242|
|         714|  9.4994e-02|   -2.388427|
|         715|  9.4998e-02|   -2.262802|
|         716|  9.5041e-02|   -2.399273|
|         717|  9.5074e-02|   -2.228239|
|         718|  9.5079e-02|   -2.156645|
|         719|  9.5079e-02|   -2.404400|
|         720|  9.5093e-02|   -2.418046|
|         721|  9.5181e-02|   -2.253260|
|         722|  9.5206e-02|   -2.412471|
|         723|  9.5212e-02|   -2.152534|
|         724|  9.5216e-02|   -2.400534|
|         725|  9.5215e-02|   -2.414328|
|         726|  9.5217e-02|   -2.269891|
|         727|  9.5217e-02|   -2.215814|
|         728|  9.5217e-02|   -2.232269|
|         729|  9.5217e-02|   -2.246249|
|         730|  9.5217e-02|   -2.261932|
|         731|  9.5218e-02|   -2.402683|
|         732|  9.5217e-02|   -2.415208|
|         733|  9.5219e-02|   -2.268568|
|         734|  9.5220e-02|   -2.409379|
|         735|  9.5220e-02|   -2.160986|
|         736|  9.5219e-02|   -2.368701|
|         737|  9.5219e-02|   -2.383542|
|         738|  9.5219e-02|   -2.398554|
|         739|  9.5219e-02|   -2.169838|
|         740|  9.5219e-02|   -2.246658|
|         741|  9.5219e-02|   -2.269299|
|         742|  9.5219e-02|   -2.395420|
|         743|  9.5219e-02|   -2.236895|
|         744|  9.5220e-02|   -2.402949|
|         745|  9.5220e-02|   -2.277165|
|         746|  9.5220e-02|   -2.411475|
|         747|  9.5220e-02|   -2.287352|
|         748|  9.5220e-02|   -2.193100|
|         749|  9.5220e-02|   -2.208544|
|         750|  9.5220e-02|   -2.224895|
|         751|  9.5220e-02|   -2.239608|
|         752|  9.5220e-02|   -2.181858|
|         753|  9.5220e-02|   -2.259978|
|         754|  9.5220e-02|   -2.390926|
|         755|  9.5220e-02|   -2.262699|
|         756|  9.5220e-02|   -2.399879|
|         757|  9.5220e-02|   -2.273713|
|         758|  9.5219e-02|   -2.378471|
|         759|  9.5219e-02|   -2.225485|
|         760|  9.5218e-02|   -2.387946|
|         761|  9.5217e-02|   -2.296361|
|         762|  9.5217e-02|   -2.224990|
|         763|  9.5217e-02|   -2.186106|
|         764|  9.5217e-02|   -2.386284|
|         765|  9.5220e-02|   -2.297319|
|         766|  9.5219e-02|   -2.361452|
|         767|  9.5219e-02|   -2.222108|
|         768|  9.5218e-02|   -2.236106|
|         769|  9.5217e-02|   -2.294684|
|         770|  9.5219e-02|   -2.384117|
|         771|  9.5223e-02|   -2.234277|
|         772|  9.5227e-02|   -2.185278|
|         773|  9.5230e-02|   -2.391589|
|         774|  9.5237e-02|   -2.284159|
|         775|  9.5241e-02|   -2.201645|
|         776|  9.5244e-02|   -2.218070|
|         777|  9.5244e-02|   -2.233878|
|         778|  9.5244e-02|   -2.249118|
|         779|  9.5244e-02|   -2.263834|
|         780|  9.5244e-02|   -2.201004|
|         781|  9.5244e-02|   -2.282920|
|         782|  9.5244e-02|   -2.370338|
|         783|  9.5243e-02|   -2.254646|
|         784|  9.5243e-02|   -2.381267|
|         785|  9.5243e-02|   -2.393557|
|         786|  9.5244e-02|   -2.256758|
|         787|  9.5246e-02|   -2.353769|
|         788|  9.5249e-02|   -2.239839|
|         789|  9.5253e-02|   -2.379815|
|         790|  9.5257e-02|   -2.179750|
|         791|  9.5267e-02|   -2.245183|
|         792|  9.5303e-02|   -2.191750|
|         793|  9.5334e-02|   -2.265242|
|         794|  9.5341e-02|   -2.389743|
|         795|  9.5346e-02|   -2.267178|
|         796|  9.5349e-02|   -2.278630|
|         797|  9.5350e-02|   -2.391659|
|         798|  9.5351e-02|   -2.249847|
|         799|  9.5354e-02|   -2.188599|
|         800|  9.5355e-02|   -2.395687|
+-----------------------------------------------------------------------+
|        File Writing Summary       |              Filename             |
+-----------------------------------------------------------------------+
|SU2 binary restart                 |restart_flow.dat                   |
|Paraview                           |flow.vtu                           |
|Paraview surface                   |surface_flow.vtu                   |
+-----------------------------------------------------------------------+
+--------------------------------------+
|  Inner_Iter|   Time(sec)|    rms[Rho]|
+--------------------------------------+
|         801|  9.5359e-02|   -2.279748|
|         802|  9.5359e-02|   -2.371970|
|         803|  9.5362e-02|   -2.243722|
|         804|  9.5362e-02|   -2.257767|
|         805|  9.5363e-02|   -2.282244|
|         806|  9.5364e-02|   -2.392469|
|         807|  9.5365e-02|   -2.176991|
|         808|  9.5366e-02|   -2.197898|
|         809|  9.5365e-02|   -2.259324|
|         810|  9.5366e-02|   -2.384397|
|         811|  9.5366e-02|   -2.278704|
|         812|  9.5376e-02|   -2.343369|
|         813|  9.5376e-02|   -2.231749|
|         814|  9.5377e-02|   -2.246977|
|         815|  9.5378e-02|   -2.374866|
|         816|  9.5379e-02|   -2.253423|
|         817|  9.5381e-02|   -2.201244|
|         818|  9.5383e-02|   -2.383332|
|         819|  9.5386e-02|   -2.397378|
|         820|  9.5387e-02|   -2.280724|
|         821|  9.5389e-02|   -2.254084|
|         822|  9.5389e-02|   -2.191391|
|         823|  9.5392e-02|   -2.398429|
|         824|  9.5395e-02|   -2.411301|
|         825|  9.5398e-02|   -2.271834|
|         826|  9.5400e-02|   -2.185831|
|         827|  9.5400e-02|   -2.261169|
|         828|  9.5401e-02|   -2.281746|
|         829|  9.5401e-02|   -2.399231|
|         830|  9.5401e-02|   -2.249113|
|         831|  9.5404e-02|   -2.263981|
|         832|  9.5407e-02|   -2.280637|
|         833|  9.5409e-02|   -2.402027|
|         834|  9.5410e-02|   -2.198670|
|         835|  9.5410e-02|   -2.266100|
|         836|  9.5413e-02|   -2.390509|
|         837|  9.5419e-02|   -2.276815|
|         838|  9.5420e-02|   -2.200808|
|         839|  9.5420e-02|   -2.267420|
|         840|  9.5420e-02|   -2.283208|
|         841|  9.5424e-02|   -2.385292|
|         842|  9.5440e-02|   -2.294347|
|         843|  9.5441e-02|   -2.254740|
|         844|  9.5442e-02|   -2.269544|
|         845|  9.5442e-02|   -2.281726|
|         846|  9.5443e-02|   -2.385987|
|         847|  9.5444e-02|   -2.293053|
|         848|  9.5444e-02|   -2.241149|
|         849|  9.5445e-02|   -2.256386|
|         850|  9.5446e-02|   -2.271856|
|         851|  9.5449e-02|   -2.281975|
|         852|  9.5453e-02|   -2.376286|
|         853|  9.5456e-02|   -2.390572|
|         854|  9.5456e-02|   -2.281802|
|         855|  9.5463e-02|   -2.202308|
|         856|  9.5465e-02|   -2.264458|
|         857|  9.5465e-02|   -2.388154|
|         858|  9.5465e-02|   -2.285598|
|         859|  9.5465e-02|   -2.382683|
|         860|  9.5465e-02|   -2.203238|
|         861|  9.5465e-02|   -2.266773|
|         862|  9.5465e-02|   -2.287609|
|         863|  9.5467e-02|   -2.381112|
|         864|  9.5466e-02|   -2.254512|
|         865|  9.5466e-02|   -2.269548|
|         866|  9.5466e-02|   -2.285228|
|         867|  9.5468e-02|   -2.386078|
|         868|  9.5468e-02|   -2.207620|
|         869|  9.5469e-02|   -2.265170|
|         870|  9.5469e-02|   -2.218547|
|         871|  9.5470e-02|   -2.285808|
|         872|  9.5470e-02|   -2.366963|
|         873|  9.5470e-02|   -2.271828|
|         874|  9.5471e-02|   -2.379143|
|         875|  9.5472e-02|   -2.279688|
|         876|  9.5472e-02|   -2.356023|
|         877|  9.5473e-02|   -2.260069|
|         878|  9.5472e-02|   -2.378399|
|         879|  9.5472e-02|   -2.290092|
|         880|  9.5473e-02|   -2.254829|
|         881|  9.5473e-02|   -2.268960|
|         882|  9.5474e-02|   -2.275647|
|         883|  9.5473e-02|   -2.390142|
|         884|  9.5474e-02|   -2.286748|
|         885|  9.5473e-02|   -2.255592|
|         886|  9.5475e-02|   -2.269632|
|         887|  9.5476e-02|   -2.273440|
|         888|  9.5478e-02|   -2.385028|
|         889|  9.5479e-02|   -2.282161|
|         890|  9.5479e-02|   -2.213615|
|         891|  9.5481e-02|   -2.230398|
|         892|  9.5481e-02|   -2.247752|
|         893|  9.5481e-02|   -2.264038|
|         894|  9.5482e-02|   -2.277995|
|         895|  9.5497e-02|   -2.206433|
|         896|  9.5502e-02|   -2.364973|
|         897|  9.5503e-02|   -2.377461|
|         898|  9.5504e-02|   -2.253996|
|         899|  9.5505e-02|   -2.341676|
|         900|  9.5505e-02|   -2.249511|
+-----------------------------------------------------------------------+
|        File Writing Summary       |              Filename             |
+-----------------------------------------------------------------------+
|SU2 binary restart                 |restart_flow.dat                   |
|Paraview                           |flow.vtu                           |
|Paraview surface                   |surface_flow.vtu                   |
+-----------------------------------------------------------------------+
+--------------------------------------+
|  Inner_Iter|   Time(sec)|    rms[Rho]|
+--------------------------------------+
|         901|  9.5509e-02|   -2.267452|
|         902|  9.5509e-02|   -2.370558|
|         903|  9.5510e-02|   -2.278998|
|         904|  9.5513e-02|   -2.244856|
|         905|  9.5540e-02|   -2.260860|
|         906|  9.5582e-02|   -2.275617|
|         907|  9.5638e-02|   -2.289441|
|         908|  9.5661e-02|   -2.253909|
|         909|  9.5667e-02|   -2.384473|
|         910|  9.5670e-02|   -2.385632|
|         911|  9.5677e-02|   -2.274949|
|         912|  9.5681e-02|   -2.263657|
|         913|  9.5684e-02|   -2.281880|
|         914|  9.5690e-02|   -2.384273|
|         915|  9.5690e-02|   -2.397494|
|         916|  9.5691e-02|   -2.189157|
|         917|  9.5691e-02|   -2.266889|
|         918|  9.5692e-02|   -2.281739|
|         919|  9.5692e-02|   -2.384063|
|         920|  9.5693e-02|   -2.397804|
|         921|  9.5695e-02|   -2.189990|
|         922|  9.5698e-02|   -2.268613|
|         923|  9.5698e-02|   -2.281204|
|         924|  9.5698e-02|   -2.384160|
|         925|  9.5698e-02|   -2.397467|
|         926|  9.5698e-02|   -2.201189|
|         927|  9.5698e-02|   -2.370297|
|         928|  9.5698e-02|   -2.387651|
|         929|  9.5699e-02|   -2.401134|
|         930|  9.5699e-02|   -2.200697|
|         931|  9.5699e-02|   -2.271247|
|         932|  9.5699e-02|   -2.279414|
|         933|  9.5699e-02|   -2.386170|
|         934|  9.5699e-02|   -2.400526|
|         935|  9.5699e-02|   -2.195430|
|         936|  9.5699e-02|   -2.209329|
|         937|  9.5700e-02|   -2.273032|
|         938|  9.5727e-02|   -2.287177|
|         939|  9.5728e-02|   -2.379201|
|         940|  9.5728e-02|   -2.265313|
|         941|  9.5731e-02|   -2.387327|
|         942|  9.5734e-02|   -2.272481|
|         943|  9.5734e-02|   -2.210354|
|         944|  9.5734e-02|   -2.379177|
|         945|  9.5734e-02|   -2.392366|
|         946|  9.5734e-02|   -2.269409|
|         947|  9.5734e-02|   -2.202755|
|         948|  9.5735e-02|   -2.391438|
|         949|  9.5736e-02|   -2.403562|
|         950|  9.5738e-02|   -2.280029|
|         951|  9.5741e-02|   -2.213974|
|         952|  9.5744e-02|   -2.231533|
|         953|  9.5748e-02|   -2.249576|
|         954|  9.5751e-02|   -2.266073|
|         955|  9.5752e-02|   -2.281144|
|         956|  9.5753e-02|   -2.206951|
|         957|  9.5753e-02|   -2.377766|
|         958|  9.5753e-02|   -2.253656|
|         959|  9.5753e-02|   -2.388585|
|         960|  9.5754e-02|   -2.258859|
|         961|  9.5754e-02|   -2.394781|
|         962|  9.5754e-02|   -2.251324|
|         963|  9.5754e-02|   -2.390865|
|         964|  9.5754e-02|   -2.260338|
|         965|  9.5755e-02|   -2.200185|
|         966|  9.5762e-02|   -2.396123|
|         967|  9.5762e-02|   -2.408296|
|         968|  9.5762e-02|   -2.286125|
|         969|  9.5762e-02|   -2.244093|
|         970|  9.5762e-02|   -2.261347|
|         971|  9.5762e-02|   -2.210009|
|         972|  9.5762e-02|   -2.282223|
|         973|  9.5762e-02|   -2.381825|
|         974|  9.5762e-02|   -2.272909|
|         975|  9.5762e-02|   -2.393396|
|         976|  9.5762e-02|   -2.407286|
|         977|  9.5762e-02|   -2.196406|
|         978|  9.5762e-02|   -2.208894|
|         979|  9.5762e-02|   -2.281309|
|         980|  9.5762e-02|   -2.296225|
|         981|  9.5762e-02|   -2.263769|
|         982|  9.5762e-02|   -2.382368|
|         983|  9.5762e-02|   -2.395834|
|         984|  9.5762e-02|   -2.268950|
|         985|  9.5762e-02|   -2.389568|
|         986|  9.5762e-02|   -2.201942|
|         987|  9.5763e-02|   -2.394799|
|         988|  9.5763e-02|   -2.285699|
|         989|  9.5762e-02|   -2.390043|
|         990|  9.5762e-02|   -2.263114|
|         991|  9.5763e-02|   -2.203318|
|         992|  9.5762e-02|   -2.395201|
|         993|  9.5762e-02|   -2.281548|
|         994|  9.5762e-02|   -2.220718|
|         995|  9.5761e-02|   -2.238988|
|         996|  9.5762e-02|   -2.255429|
|         997|  9.5763e-02|   -2.271946|
|         998|  9.5763e-02|   -2.288324|
|         999|  9.5763e-02|   -2.304018|
|        1000|  9.5763e-02|   -2.216044|
+-----------------------------------------------------------------------+
|        File Writing Summary       |              Filename             |
+-----------------------------------------------------------------------+
|SU2 binary restart                 |restart_flow.dat                   |
|Paraview                           |flow.vtu                           |
|Paraview surface                   |surface_flow.vtu                   |
+-----------------------------------------------------------------------+
+--------------------------------------+
|  Inner_Iter|   Time(sec)|    rms[Rho]|
+--------------------------------------+
|        1001|  9.5767e-02|   -2.352108|
|        1002|  9.5767e-02|   -2.368530|
|        1003|  9.5767e-02|   -2.382287|
|        1004|  9.5767e-02|   -2.395320|
|        1005|  9.5767e-02|   -2.246807|
|        1006|  9.5818e-02|   -2.355195|
|        1007|  9.5827e-02|   -2.267305|
|        1008|  9.5827e-02|   -2.273630|
|        1009|  9.5827e-02|   -2.288610|
|        1010|  9.5826e-02|   -2.270961|
|        1011|  9.5827e-02|   -2.391455|
|        1012|  9.5827e-02|   -2.406167|
|        1013|  9.5827e-02|   -2.181079|
|        1014|  9.5826e-02|   -2.277348|
|        1015|  9.5825e-02|   -2.193650|
|        1016|  9.5825e-02|   -2.299163|
|        1017|  9.5828e-02|   -2.408274|
|        1018|  9.5828e-02|   -2.251921|
|        1019|  9.5828e-02|   -2.268531|
|        1020|  9.5828e-02|   -2.410452|
|        1021|  9.5828e-02|   -2.191651|
|        1022|  9.5825e-02|   -2.398037|
|        1023|  9.5825e-02|   -2.284575|
|        1024|  9.5824e-02|   -2.408008|
|        1025|  9.5823e-02|   -2.263912|
|        1026|  9.5825e-02|   -2.204321|
|        1027|  9.5827e-02|   -2.396056|
|        1028|  9.5828e-02|   -2.284668|
|        1029|  9.5829e-02|   -2.406201|
|        1030|  9.5830e-02|   -2.204700|
|        1031|  9.5830e-02|   -2.272911|
|        1032|  9.5830e-02|   -2.395782|
|        1033|  9.5829e-02|   -2.284222|
|        1034|  9.5830e-02|   -2.406043|
|        1035|  9.5830e-02|   -2.205499|
|        1036|  9.5829e-02|   -2.274241|
|        1037|  9.5827e-02|   -2.395439|
|        1038|  9.5826e-02|   -2.283783|
|        1039|  9.5825e-02|   -2.405906|
|        1040|  9.5824e-02|   -2.206147|
|        1041|  9.5825e-02|   -2.275360|
|        1042|  9.5825e-02|   -2.394822|
|        1043|  9.5825e-02|   -2.283160|
|        1044|  9.5824e-02|   -2.405335|
|        1045|  9.5822e-02|   -2.206372|
|        1046|  9.5821e-02|   -2.275868|
|        1047|  9.5820e-02|   -2.393576|
|        1048|  9.5819e-02|   -2.277197|
|        1049|  9.5819e-02|   -2.207075|
|        1050|  9.5819e-02|   -2.274743|
|        1051|  9.5822e-02|   -2.390052|
|        1052|  9.5821e-02|   -2.276353|
|        1053|  9.5821e-02|   -2.225826|
|        1054|  9.5820e-02|   -2.242943|
|        1055|  9.5820e-02|   -2.260604|
|        1056|  9.5819e-02|   -2.276680|
|        1057|  9.5821e-02|   -2.292961|
|        1058|  9.5820e-02|   -2.307853|
|        1059|  9.5820e-02|   -2.216579|
|        1060|  9.5819e-02|   -2.366864|
|        1061|  9.5818e-02|   -2.379343|
|        1062|  9.5818e-02|   -2.247250|
|        1063|  9.5819e-02|   -2.388039|
|        1064|  9.5823e-02|   -2.256434|
|        1065|  9.5825e-02|   -2.191165|
|        1066|  9.5827e-02|   -2.407128|
|        1067|  9.5829e-02|   -2.286140|
|        1068|  9.5829e-02|   -2.262865|
|        1069|  9.5838e-02|   -2.277680|
|        1070|  9.5859e-02|   -2.274737|
|        1071|  9.5874e-02|   -2.405205|
|        1072|  9.5878e-02|   -2.286210|
|        1073|  9.5880e-02|   -2.220235|
|        1074|  9.5880e-02|   -2.236755|
|        1075|  9.5879e-02|   -2.253412|
|        1076|  9.5879e-02|   -2.268484|
|        1077|  9.5887e-02|   -2.284462|
|        1078|  9.5951e-02|   -2.209072|
|        1079|  9.5958e-02|   -2.380765|
|        1080|  9.5976e-02|   -2.394502|
|        1081|  9.5978e-02|   -2.263316|
|        1082|  9.5982e-02|   -2.404818|
|        1083|  9.5981e-02|   -2.275415|
|        1084|  9.5981e-02|   -2.398099|
|        1085|  9.5980e-02|   -2.283246|
|        1086|  9.5979e-02|   -2.262766|
|        1087|  9.5981e-02|   -2.277689|
|        1088|  9.5981e-02|   -2.276197|
|        1089|  9.5981e-02|   -2.396825|
|        1090|  9.5980e-02|   -2.279599|
|        1091|  9.5979e-02|   -2.202488|
|        1092|  9.5978e-02|   -2.393614|
|        1093|  9.5978e-02|   -2.406363|
|        1094|  9.5978e-02|   -2.200945|
|        1095|  9.5977e-02|   -2.268628|
|        1096|  9.5974e-02|   -2.381293|
|        1097|  9.5973e-02|   -2.394036|
|        1098|  9.5973e-02|   -2.187086|
|        1099|  9.5972e-02|   -2.209273|
|        1100|  9.5971e-02|   -2.279316|
+-----------------------------------------------------------------------+
|        File Writing Summary       |              Filename             |
+-----------------------------------------------------------------------+
|SU2 binary restart                 |restart_flow.dat                   |
|Paraview                           |flow.vtu                           |
|Paraview surface                   |surface_flow.vtu                   |
+-----------------------------------------------------------------------+
+--------------------------------------+
|  Inner_Iter|   Time(sec)|    rms[Rho]|
+--------------------------------------+
|        1101|  9.5973e-02|   -2.294138|
|        1102|  9.5970e-02|   -2.265907|
|        1103|  9.5970e-02|   -2.380609|
|        1104|  9.5970e-02|   -2.378952|
|        1105|  9.5969e-02|   -2.275014|
|        1106|  9.5968e-02|   -2.277410|
|        1107|  9.5967e-02|   -2.278731|
|        1108|  9.5967e-02|   -2.389166|
|        1109|  9.5966e-02|   -2.389096|
|        1110|  9.5964e-02|   -2.189306|
|        1111|  9.5964e-02|   -2.263128|
|        1112|  9.5963e-02|   -2.212150|
|        1113|  9.5963e-02|   -2.283812|
|        1114|  9.5966e-02|   -2.379617|
|        1115|  9.5967e-02|   -2.274139|
|        1116|  9.5969e-02|   -2.375047|
|        1117|  9.5971e-02|   -2.285855|
|        1118|  9.5974e-02|   -2.268013|
|        1119|  9.5974e-02|   -2.283162|
|        1120|  9.5974e-02|   -2.264582|
|        1121|  9.5973e-02|   -2.362419|
|        1122|  9.5978e-02|   -2.220114|
|        1123|  9.5978e-02|   -2.368875|
|        1124|  9.5977e-02|   -2.383654|
|        1125|  9.5977e-02|   -2.276168|
|        1126|  9.5976e-02|   -2.389365|
|        1127|  9.5975e-02|   -2.193474|
|        1128|  9.5975e-02|   -2.205382|
|        1129|  9.5974e-02|   -2.262352|
|        1130|  9.5973e-02|   -2.278623|
|        1131|  9.5974e-02|   -2.293972|
|        1132|  9.5975e-02|   -2.215562|
|        1133|  9.5976e-02|   -2.313995|
|        1134|  9.5979e-02|   -2.370056|
|        1135|  9.5983e-02|   -2.383337|
|        1136|  9.5984e-02|   -2.245514|
|        1137|  9.5987e-02|   -2.395528|
|        1138|  9.5990e-02|   -2.254164|
|        1139|  9.5991e-02|   -2.405586|
|        1140|  9.5990e-02|   -2.189955|
|        1141|  9.5990e-02|   -2.395516|
|        1142|  9.5989e-02|   -2.408331|
|        1143|  9.5990e-02|   -2.268851|
|        1144|  9.5990e-02|   -2.417127|
|        1145|  9.5990e-02|   -2.194608|
|        1146|  9.5990e-02|   -2.278478|
|        1147|  9.5990e-02|   -2.405759|
|        1148|  9.5990e-02|   -2.271072|
|        1149|  9.5990e-02|   -2.414816|
|        1150|  9.5990e-02|   -2.192284|
|        1151|  9.5990e-02|   -2.204460|
|        1152|  9.5989e-02|   -2.278249|
|        1153|  9.5987e-02|   -2.292750|
|        1154|  9.5987e-02|   -2.253278|
|        1155|  9.5987e-02|   -2.374497|
|        1156|  9.5987e-02|   -2.268047|
|        1157|  9.5987e-02|   -2.386262|
|        1158|  9.5991e-02|   -2.400595|
|        1159|  9.5989e-02|   -2.206879|
|        1160|  9.6001e-02|   -2.280558|
|        1161|  9.6007e-02|   -2.389088|
|        1162|  9.6011e-02|   -2.275527|
|        1163|  9.6011e-02|   -2.399919|
|        1164|  9.6011e-02|   -2.206809|
|        1165|  9.6013e-02|   -2.279834|
|        1166|  9.6012e-02|   -2.264587|
|        1167|  9.6012e-02|   -2.384856|
|        1168|  9.6016e-02|   -2.286533|
|        1169|  9.6018e-02|   -2.270899|
|        1170|  9.6024e-02|   -2.387876|
|        1171|  9.6033e-02|   -2.278623|
|        1172|  9.6036e-02|   -2.398188|
|        1173|  9.6041e-02|   -2.207757|
|        1174|  9.6040e-02|   -2.277757|
|        1175|  9.6041e-02|   -2.388148|
|        1176|  9.6040e-02|   -2.278587|
|        1177|  9.6039e-02|   -2.392631|
|        1178|  9.6039e-02|   -2.263740|
|        1179|  9.6043e-02|   -2.278371|
|        1180|  9.6044e-02|   -2.278179|
|        1181|  9.6046e-02|   -2.273083|
|        1182|  9.6045e-02|   -2.217433|
|        1183|  9.6045e-02|   -2.373611|
|        1184|  9.6044e-02|   -2.388266|
|        1185|  9.6044e-02|   -2.277667|
|        1186|  9.6044e-02|   -2.273580|
|        1187|  9.6042e-02|   -2.217206|
|        1188|  9.6050e-02|   -2.373954|
|        1189|  9.6100e-02|   -2.388396|
|        1190|  9.6108e-02|   -2.277672|
|        1191|  9.6126e-02|   -2.273582|
|        1192|  9.6128e-02|   -2.217121|
|        1193|  9.6129e-02|   -2.374246|
|        1194|  9.6129e-02|   -2.388852|
|        1195|  9.6129e-02|   -2.277525|
|        1196|  9.6128e-02|   -2.273619|
|        1197|  9.6127e-02|   -2.217150|
|        1198|  9.6127e-02|   -2.374557|
|        1199|  9.6126e-02|   -2.388829|
|        1200|  9.6126e-02|   -2.273523|
+-----------------------------------------------------------------------+
|        File Writing Summary       |              Filename             |
+-----------------------------------------------------------------------+
|SU2 binary restart                 |restart_flow.dat                   |
|Paraview                           |flow.vtu                           |
|Paraview surface                   |surface_flow.vtu                   |
+-----------------------------------------------------------------------+
+--------------------------------------+
|  Inner_Iter|   Time(sec)|    rms[Rho]|
+--------------------------------------+
|        1201|  9.6127e-02|   -2.209004|
|        1202|  9.6126e-02|   -2.386877|
|        1203|  9.6125e-02|   -2.401314|
|        1204|  9.6125e-02|   -2.196288|
|        1205|  9.6125e-02|   -2.276371|
|        1206|  9.6124e-02|   -2.389822|
|        1207|  9.6123e-02|   -2.274542|
|        1208|  9.6122e-02|   -2.197437|
|        1209|  9.6120e-02|   -2.277628|
|        1210|  9.6119e-02|   -2.388669|
|        1211|  9.6119e-02|   -2.278996|
|        1212|  9.6121e-02|   -2.395346|
|        1213|  9.6122e-02|   -2.264314|
|        1214|  9.6122e-02|   -2.210175|
|        1215|  9.6122e-02|   -2.386708|
|        1216|  9.6123e-02|   -2.399948|
|        1217|  9.6123e-02|   -2.202626|
|        1218|  9.6122e-02|   -2.274514|
|        1219|  9.6122e-02|   -2.214199|
|        1220|  9.6121e-02|   -2.295859|
|        1221|  9.6121e-02|   -2.254115|
|        1222|  9.6120e-02|   -2.376732|
|        1223|  9.6120e-02|   -2.260497|
|        1224|  9.6119e-02|   -2.288696|
|        1225|  9.6122e-02|   -2.269670|
|        1226|  9.6122e-02|   -2.389579|
|        1227|  9.6122e-02|   -2.277547|
|        1228|  9.6124e-02|   -2.256299|
|        1229|  9.6124e-02|   -2.274278|
|        1230|  9.6125e-02|   -2.289714|
|        1231|  9.6124e-02|   -2.269671|
|        1232|  9.6129e-02|   -2.392188|
|        1233|  9.6129e-02|   -2.389836|
|        1234|  9.6133e-02|   -2.273559|
|        1235|  9.6132e-02|   -2.208840|
|        1236|  9.6132e-02|   -2.280246|
|        1237|  9.6142e-02|   -2.388804|
|        1238|  9.6148e-02|   -2.277869|
|        1239|  9.6149e-02|   -2.399353|
|        1240|  9.6149e-02|   -2.208402|
|        1241|  9.6148e-02|   -2.280515|
|        1242|  9.6149e-02|   -2.266591|
|        1243|  9.6160e-02|   -2.386425|
|        1244|  9.6165e-02|   -2.287394|
|        1245|  9.6169e-02|   -2.272493|
|        1246|  9.6172e-02|   -2.388156|
|        1247|  9.6181e-02|   -2.275988|
|        1248|  9.6186e-02|   -2.209907|
|        1249|  9.6187e-02|   -2.278502|
|        1250|  9.6189e-02|   -2.387325|
|        1251|  9.6190e-02|   -2.280150|
|        1252|  9.6190e-02|   -2.255193|
|        1253|  9.6190e-02|   -2.273491|
|        1254|  9.6199e-02|   -2.288864|
|        1255|  9.6204e-02|   -2.271718|
|        1256|  9.6206e-02|   -2.390529|
|        1257|  9.6215e-02|   -2.274567|
|        1258|  9.6221e-02|   -2.397509|
|        1259|  9.6231e-02|   -2.287608|
|        1260|  9.6273e-02|   -2.247482|
|        1261|  9.6285e-02|   -2.264584|
|        1262|  9.6292e-02|   -2.279649|
|        1263|  9.6295e-02|   -2.217342|
|        1264|  9.6297e-02|   -2.375519|
|        1265|  9.6297e-02|   -2.389428|
|        1266|  9.6298e-02|   -2.273688|
|        1267|  9.6299e-02|   -2.400129|
|        1268|  9.6299e-02|   -2.208308|
|        1269|  9.6300e-02|   -2.389245|
|        1270|  9.6301e-02|   -2.403267|
|        1271|  9.6302e-02|   -2.284281|
|        1272|  9.6303e-02|   -2.397141|
|        1273|  9.6312e-02|   -2.199129|
|        1274|  9.6323e-02|   -2.270076|
|        1275|  9.6329e-02|   -2.402372|
|        1276|  9.6331e-02|   -2.283022|
|        1277|  9.6335e-02|   -2.266328|
|        1278|  9.6340e-02|   -2.209283|
|        1279|  9.6347e-02|   -2.388256|
|        1280|  9.6353e-02|   -2.401790|
|        1281|  9.6355e-02|   -2.281927|
|        1282|  9.6356e-02|   -2.251215|
|        1283|  9.6356e-02|   -2.268542|
|        1284|  9.6356e-02|   -2.283552|
|        1285|  9.6356e-02|   -2.214678|
|        1286|  9.6356e-02|   -2.379330|
|        1287|  9.6356e-02|   -2.393219|
|        1288|  9.6356e-02|   -2.265564|
|        1289|  9.6360e-02|   -2.236741|
|        1290|  9.6363e-02|   -2.254468|
|        1291|  9.6364e-02|   -2.271921|
|        1292|  9.6366e-02|   -2.287847|
|        1293|  9.6366e-02|   -2.303504|
|        1294|  9.6366e-02|   -2.318673|
|        1295|  9.6366e-02|   -2.215845|
|        1296|  9.6368e-02|   -2.367614|
|        1297|  9.6377e-02|   -2.380909|
|        1298|  9.6377e-02|   -2.240764|
|        1299|  9.6377e-02|   -2.391882|
|        1300|  9.6377e-02|   -2.404331|
+-----------------------------------------------------------------------+
|        File Writing Summary       |              Filename             |
+-----------------------------------------------------------------------+
|SU2 binary restart                 |restart_flow.dat                   |
|Paraview                           |flow.vtu                           |
|Paraview surface                   |surface_flow.vtu                   |
+-----------------------------------------------------------------------+
+--------------------------------------+
|  Inner_Iter|   Time(sec)|    rms[Rho]|
+--------------------------------------+
|        1301|  9.6379e-02|   -2.416104|
|        1302|  9.6379e-02|   -2.262558|
|        1303|  9.6379e-02|   -2.238182|
|        1304|  9.6379e-02|   -2.254298|
|        1305|  9.6379e-02|   -2.270163|
|        1306|  9.6377e-02|   -2.194523|
|        1307|  9.6377e-02|   -2.306148|
|        1308|  9.6376e-02|   -2.255001|
|        1309|  9.6376e-02|   -2.382219|
|        1310|  9.6376e-02|   -2.266314|
|        1311|  9.6375e-02|   -2.199263|
|        1312|  9.6375e-02|   -2.382405|
|        1313|  9.6376e-02|   -2.292408|
|        1314|  9.6376e-02|   -2.384942|
|        1315|  9.6376e-02|   -2.251088|
|        1316|  9.6376e-02|   -2.266264|
|        1317|  9.6377e-02|   -2.291086|
|        1318|  9.6378e-02|   -2.392657|
|        1319|  9.6379e-02|   -2.302968|
|        1320|  9.6379e-02|   -2.236804|
|        1321|  9.6380e-02|   -2.253144|
|        1322|  9.6381e-02|   -2.269013|
|        1323|  9.6382e-02|   -2.220637|
|        1324|  9.6382e-02|   -2.369976|
|        1325|  9.6381e-02|   -2.283968|
|        1326|  9.6381e-02|   -2.376844|
|        1327|  9.6381e-02|   -2.241289|
|        1328|  9.6385e-02|   -2.372449|
|        1329|  9.6388e-02|   -2.249401|
|        1330|  9.6387e-02|   -2.264584|
|        1331|  9.6387e-02|   -2.212140|
|        1332|  9.6386e-02|   -2.381695|
|        1333|  9.6386e-02|   -2.395885|
|        1334|  9.6385e-02|   -2.209851|
|        1335|  9.6385e-02|   -2.280431|
|        1336|  9.6385e-02|   -2.266553|
|        1337|  9.6385e-02|   -2.381778|
|        1338|  9.6385e-02|   -2.207679|
|        1339|  9.6385e-02|   -2.369936|
|        1340|  9.6387e-02|   -2.386258|
|        1341|  9.6386e-02|   -2.278669|
|        1342|  9.6386e-02|   -2.396585|
|        1343|  9.6385e-02|   -2.208329|
|        1344|  9.6385e-02|   -2.277840|
|        1345|  9.6385e-02|   -2.387300|
|        1346|  9.6385e-02|   -2.279218|
|        1347|  9.6389e-02|   -2.273238|
|        1348|  9.6389e-02|   -2.218061|
|        1349|  9.6389e-02|   -2.374133|
|        1350|  9.6389e-02|   -2.389600|
|        1351|  9.6389e-02|   -2.279211|
|        1352|  9.6388e-02|   -2.273467|
|        1353|  9.6387e-02|   -2.217644|
|        1354|  9.6386e-02|   -2.374971|
|        1355|  9.6385e-02|   -2.389853|
|        1356|  9.6385e-02|   -2.278119|
|        1357|  9.6385e-02|   -2.273665|
|        1358|  9.6385e-02|   -2.217260|
|        1359|  9.6384e-02|   -2.375725|
|        1360|  9.6384e-02|   -2.390318|
|        1361|  9.6384e-02|   -2.274833|
|        1362|  9.6385e-02|   -2.230136|
|        1363|  9.6385e-02|   -2.247731|
|        1364|  9.6386e-02|   -2.264384|
|        1365|  9.6386e-02|   -2.281516|
|        1366|  9.6385e-02|   -2.297271|
|        1367|  9.6384e-02|   -2.312175|
|        1368|  9.6388e-02|   -2.216811|
|        1369|  9.6391e-02|   -2.367747|
|        1370|  9.6393e-02|   -2.381973|
|        1371|  9.6398e-02|   -2.246315|
|        1372|  9.6403e-02|   -2.394149|
|        1373|  9.6425e-02|   -2.407733|
|        1374|  9.6431e-02|   -2.249741|
|        1375|  9.6444e-02|   -2.245640|
|        1376|  9.6454e-02|   -2.262760|
|        1377|  9.6457e-02|   -2.279253|
|        1378|  9.6458e-02|   -2.307103|
|        1379|  9.6459e-02|   -2.209733|
|        1380|  9.6460e-02|   -2.379038|
|        1381|  9.6463e-02|   -2.392509|
|        1382|  9.6470e-02|   -2.245719|
|        1383|  9.6478e-02|   -2.399901|
|        1384|  9.6483e-02|   -2.413180|
|        1385|  9.6489e-02|   -2.258466|
|        1386|  9.6491e-02|   -2.233837|
|        1387|  9.6492e-02|   -2.251100|
|        1388|  9.6496e-02|   -2.268132|
|        1389|  9.6499e-02|   -2.283807|
|        1390|  9.6503e-02|   -2.312950|
|        1391|  9.6506e-02|   -2.246424|
|        1392|  9.6507e-02|   -2.397134|
|        1393|  9.6508e-02|   -2.254978|
|        1394|  9.6508e-02|   -2.406505|
|        1395|  9.6508e-02|   -2.418230|
|        1396|  9.6509e-02|   -2.259908|
|        1397|  9.6509e-02|   -2.392790|
|        1398|  9.6508e-02|   -2.268770|
|        1399|  9.6508e-02|   -2.200148|
|        1400|  9.6508e-02|   -2.399898|
+-----------------------------------------------------------------------+
|        File Writing Summary       |              Filename             |
+-----------------------------------------------------------------------+
|SU2 binary restart                 |restart_flow.dat                   |
|Paraview                           |flow.vtu                           |
|Paraview surface                   |surface_flow.vtu                   |
+-----------------------------------------------------------------------+
+--------------------------------------+
|  Inner_Iter|   Time(sec)|    rms[Rho]|
+--------------------------------------+
|        1401|  9.6509e-02|   -2.412871|
|        1402|  9.6509e-02|   -2.189000|
|        1403|  9.6510e-02|   -2.281597|
|        1404|  9.6508e-02|   -2.270166|
|        1405|  9.6509e-02|   -2.411551|
|        1406|  9.6512e-02|   -2.282547|
|        1407|  9.6513e-02|   -2.250260|
|        1408|  9.6513e-02|   -2.232782|
|        1409|  9.6514e-02|   -2.346614|
|        1410|  9.6512e-02|   -2.363397|
|        1411|  9.6511e-02|   -2.269107|
|        1412|  9.6511e-02|   -2.272348|
|        1413|  9.6509e-02|   -2.287969|
|        1414|  9.6509e-02|   -2.303144|
|        1415|  9.6510e-02|   -2.390676|
|        1416|  9.6510e-02|   -2.256705|
|        1417|  9.6510e-02|   -2.402106|
|        1418|  9.6509e-02|   -2.414840|
|        1419|  9.6508e-02|   -2.261252|
|        1420|  9.6508e-02|   -2.423376|
|        1421|  9.6508e-02|   -2.169822|
|        1422|  9.6507e-02|   -2.192891|
|        1423|  9.6506e-02|   -2.283987|
|        1424|  9.6508e-02|   -2.412030|
|        1425|  9.6508e-02|   -2.267460|
|        1426|  9.6509e-02|   -2.421858|
|        1427|  9.6509e-02|   -2.280392|
|        1428|  9.6511e-02|   -2.409716|
|        1429|  9.6512e-02|   -2.186981|
|        1430|  9.6513e-02|   -2.198426|
|        1431|  9.6514e-02|   -2.256810|
|        1432|  9.6515e-02|   -2.272780|
|        1433|  9.6520e-02|   -2.288188|
|        1434|  9.6523e-02|   -2.209588|
|        1435|  9.6525e-02|   -2.308825|
|        1436|  9.6529e-02|   -2.385261|
|        1437|  9.6531e-02|   -2.253463|
|        1438|  9.6531e-02|   -2.397273|
|        1439|  9.6536e-02|   -2.410909|
|        1440|  9.6543e-02|   -2.257184|
|        1441|  9.6551e-02|   -2.417605|
|        1442|  9.6558e-02|   -2.255294|
|        1443|  9.6563e-02|   -2.407824|
|        1444|  9.6565e-02|   -2.193739|
|        1445|  9.6571e-02|   -2.267559|
|        1446|  9.6573e-02|   -2.412092|
|        1447|  9.6574e-02|   -2.284029|
|        1448|  9.6576e-02|   -2.248597|
|        1449|  9.6578e-02|   -2.263997|
|        1450|  9.6578e-02|   -2.279719|
|        1451|  9.6578e-02|   -2.210317|
|        1452|  9.6579e-02|   -2.387462|
|        1453|  9.6579e-02|   -2.402040|
|        1454|  9.6582e-02|   -2.267869|
[...]
|        2601|  9.7029e-02|   -2.250403|
|        2602|  9.7028e-02|   -2.296404|
|        2603|  9.7031e-02|   -2.259823|
|        2604|  9.7031e-02|   -2.402674|
|        2605|  9.7031e-02|   -2.268501|
|        2606|  9.7030e-02|   -2.379389|
|        2607|  9.7030e-02|   -2.270648|
|        2608|  9.7030e-02|   -2.286256|
|        2609|  9.7031e-02|   -2.273429|
|        2610|  9.7032e-02|   -2.399992|
|        2611|  9.7032e-02|   -2.278760|
|        2612|  9.7033e-02|   -2.199595|
|        2613|  9.7032e-02|   -2.402884|
|        2614|  9.7031e-02|   -2.270671|
|        2615|  9.7031e-02|   -2.397358|
|        2616|  9.7030e-02|   -2.278449|
|        2617|  9.7031e-02|   -2.201776|
|        2618|  9.7032e-02|   -2.382880|
|        2619|  9.7032e-02|   -2.396084|
|        2620|  9.7031e-02|   -2.291873|
|        2621|  9.7030e-02|   -2.267896|
|        2622|  9.7029e-02|   -2.399336|
|        2623|  9.7029e-02|   -2.272753|
|        2624|  9.7028e-02|   -2.205053|
|        2625|  9.7027e-02|   -2.280713|
|        2626|  9.7026e-02|   -2.395681|
|        2627|  9.7025e-02|   -2.277642|
|        2628|  9.7025e-02|   -2.276075|
|        2629|  9.7025e-02|   -2.215166|
|        2630|  9.7025e-02|   -2.381285|
|        2631|  9.7024e-02|   -2.395517|
|        2632|  9.7024e-02|   -2.278024|
|        2633|  9.7024e-02|   -2.259445|
|        2634|  9.7025e-02|   -2.275340|
|        2635|  9.7025e-02|   -2.291012|
|        2636|  9.7025e-02|   -2.220371|
|        2637|  9.7024e-02|   -2.372428|
|        2638|  9.7024e-02|   -2.386561|
|        2639|  9.7023e-02|   -2.266693|
|        2640|  9.7023e-02|   -2.397567|
|        2641|  9.7022e-02|   -2.211907|
|        2642|  9.7022e-02|   -2.386721|
|        2643|  9.7020e-02|   -2.400933|
|        2644|  9.7020e-02|   -2.275305|
|        2645|  9.7019e-02|   -2.204107|
|        2646|  9.7018e-02|   -2.278545|
|        2647|  9.7017e-02|   -2.397659|
|        2648|  9.7017e-02|   -2.279402|
|        2649|  9.7016e-02|   -2.257795|
|        2650|  9.7015e-02|   -2.274019|
|        2651|  9.7015e-02|   -2.290033|
|        2652|  9.7014e-02|   -2.219055|
|        2653|  9.7013e-02|   -2.375196|
|        2654|  9.7013e-02|   -2.266254|
|        2655|  9.7011e-02|   -2.398531|
|        2656|  9.7011e-02|   -2.275165|
|        2657|  9.7011e-02|   -2.277109|
|        2658|  9.7009e-02|   -2.401573|
|        2659|  9.7009e-02|   -2.276049|
|        2660|  9.7008e-02|   -2.230372|
|        2661|  9.7007e-02|   -2.247819|
|        2662|  9.7006e-02|   -2.264609|
|        2663|  9.7006e-02|   -2.280766|
|        2664|  9.7005e-02|   -2.296154|
|        2665|  9.7004e-02|   -2.311609|
|        2666|  9.7003e-02|   -2.214058|
|        2667|  9.7003e-02|   -2.374789|
|        2668|  9.7001e-02|   -2.246588|
|        2669|  9.7001e-02|   -2.399160|
|        2670|  9.7000e-02|   -2.255496|
|        2671|  9.6999e-02|   -2.409273|
|        2672|  9.6999e-02|   -2.261531|
|        2673|  9.6998e-02|   -2.236121|
|        2674|  9.6998e-02|   -2.253366|
|        2675|  9.6996e-02|   -2.269769|
|        2676|  9.6995e-02|   -2.285650|
|        2677|  9.6994e-02|   -2.314957|
|        2678|  9.6993e-02|   -2.246589|
|        2679|  9.6993e-02|   -2.392580|
|        2680|  9.6991e-02|   -2.405593|
|        2681|  9.6990e-02|   -2.252727|
|        2682|  9.6990e-02|   -2.409836|
|        2683|  9.6989e-02|   -2.407905|
|        2684|  9.6987e-02|   -2.191423|
|        2685|  9.6987e-02|   -2.284803|
|        2686|  9.6986e-02|   -2.411716|
|        2687|  9.6986e-02|   -2.265463|
|        2688|  9.6989e-02|   -2.404369|
|        2689|  9.6995e-02|   -2.195317|
|        2690|  9.6994e-02|   -2.283485|
|        2691|  9.6994e-02|   -2.407776|
|        2692|  9.6993e-02|   -2.269621|
|        2693|  9.6992e-02|   -2.382270|
|        2694|  9.6992e-02|   -2.267884|
|        2695|  9.6991e-02|   -2.208916|
|        2696|  9.6990e-02|   -2.389652|
|        2697|  9.6989e-02|   -2.278084|
|        2698|  9.6989e-02|   -2.206227|
|        2699|  9.6989e-02|   -2.393436|
|        2700|  9.6988e-02|   -2.407341|
+-----------------------------------------------------------------------+
|        File Writing Summary       |              Filename             |
+-----------------------------------------------------------------------+
|SU2 binary restart                 |restart_flow.dat                   |
|Paraview                           |flow.vtu                           |
|Paraview surface                   |surface_flow.vtu                   |
+-----------------------------------------------------------------------+
+--------------------------------------+
|  Inner_Iter|   Time(sec)|    rms[Rho]|
+--------------------------------------+
|        2701|  9.6988e-02|   -2.272426|
|        2702|  9.6987e-02|   -2.276895|
|        2703|  9.6986e-02|   -2.208394|
|        2704|  9.6986e-02|   -2.390065|
|        2705|  9.6985e-02|   -2.404162|
|        2706|  9.6985e-02|   -2.274544|
|        2707|  9.6984e-02|   -2.258985|
|        2708|  9.6984e-02|   -2.275190|
|        2709|  9.6983e-02|   -2.215501|
|        2710|  9.6982e-02|   -2.296270|
|        2711|  9.6982e-02|   -2.379894|
|        2712|  9.6981e-02|   -2.267518|
|        2713|  9.6980e-02|   -2.391329|
|        2714|  9.6980e-02|   -2.272705|
|        2715|  9.6979e-02|   -2.276546|
|        2716|  9.6979e-02|   -2.281624|
|        2717|  9.6979e-02|   -2.402085|
|        2718|  9.6979e-02|   -2.293211|
|        2719|  9.6978e-02|   -2.247081|
|        2720|  9.6978e-02|   -2.262740|
|        2721|  9.6979e-02|   -2.278317|
|        2722|  9.6978e-02|   -2.208805|
|        2723|  9.6982e-02|   -2.374398|
|        2724|  9.6982e-02|   -2.389034|
|        2725|  9.6981e-02|   -2.273983|
|        2726|  9.6980e-02|   -2.211507|
|        2727|  9.6979e-02|   -2.283458|
|        2728|  9.6978e-02|   -2.386880|
|        2729|  9.6978e-02|   -2.275264|
|        2730|  9.6977e-02|   -2.212531|
|        2731|  9.6979e-02|   -2.282983|
|        2732|  9.6979e-02|   -2.385745|
|        2733|  9.6978e-02|   -2.279075|
|        2734|  9.6978e-02|   -2.393058|
|        2735|  9.6977e-02|   -2.267605|
|        2736|  9.6977e-02|   -2.282715|
|        2737|  9.6976e-02|   -2.278156|
|        2738|  9.6975e-02|   -2.395635|
|        2739|  9.6975e-02|   -2.212700|
|        2740|  9.6974e-02|   -2.283133|
|        2741|  9.6974e-02|   -2.384179|
|        2742|  9.6973e-02|   -2.277813|
|        2743|  9.6972e-02|   -2.277477|
|        2744|  9.6972e-02|   -2.293501|
|        2745|  9.6972e-02|   -2.269558|
|        2746|  9.6971e-02|   -2.382417|
|        2747|  9.6970e-02|   -2.277703|
|        2748|  9.6970e-02|   -2.293862|
|        2749|  9.6969e-02|   -2.269163|
|        2750|  9.6969e-02|   -2.383137|
|        2751|  9.6968e-02|   -2.174244|
|        2752|  9.6968e-02|   -2.196475|
|        2753|  9.6968e-02|   -2.273081|
|        2754|  9.6968e-02|   -2.289085|
|        2755|  9.6969e-02|   -2.218944|
|        2756|  9.6977e-02|   -2.310301|
|        2757|  9.6978e-02|   -2.369718|
|        2758|  9.6977e-02|   -2.252445|
|        2759|  9.6977e-02|   -2.263877|
|        2760|  9.6976e-02|   -2.375859|
|        2761|  9.6976e-02|   -2.276054|
|        2762|  9.6975e-02|   -2.383623|
|        2763|  9.6975e-02|   -2.271143|
|        2764|  9.6974e-02|   -2.389728|
|        2765|  9.6973e-02|   -2.287813|
|        2766|  9.6973e-02|   -2.384184|
|        2767|  9.6972e-02|   -2.208795|
|        2768|  9.6972e-02|   -2.272683|
|        2769|  9.6971e-02|   -2.389520|
|        2770|  9.6970e-02|   -2.286583|
|        2771|  9.6970e-02|   -2.384077|
|        2772|  9.6969e-02|   -2.209022|
|        2773|  9.6969e-02|   -2.273929|
|        2774|  9.6969e-02|   -2.274930|
|        2775|  9.6970e-02|   -2.385350|
|        2776|  9.6970e-02|   -2.282203|
|        2777|  9.6969e-02|   -2.279715|
|        2778|  9.6968e-02|   -2.388986|
|        2779|  9.6968e-02|   -2.287317|
|        2780|  9.6967e-02|   -2.383382|
|        2781|  9.6966e-02|   -2.209097|
|        2782|  9.6966e-02|   -2.273209|
|        2783|  9.6965e-02|   -2.389247|
|        2784|  9.6965e-02|   -2.285994|
|        2785|  9.6965e-02|   -2.367143|
|        2786|  9.6965e-02|   -2.260252|
|        2787|  9.6966e-02|   -2.275490|
|        2788|  9.6966e-02|   -2.286567|
|        2789|  9.6965e-02|   -2.271018|
|        2790|  9.6965e-02|   -2.286190|
|        2791|  9.6964e-02|   -2.274043|
|        2792|  9.6963e-02|   -2.394156|
|        2793|  9.6963e-02|   -2.285887|
|        2794|  9.6962e-02|   -2.255088|
|        2795|  9.6962e-02|   -2.270820|
|        2796|  9.6961e-02|   -2.286305|
|        2797|  9.6961e-02|   -2.302648|
|        2798|  9.6960e-02|   -2.261748|
|        2799|  9.6959e-02|   -2.382800|
|        2800|  9.6958e-02|   -2.270186|
+-----------------------------------------------------------------------+
|        File Writing Summary       |              Filename             |
+-----------------------------------------------------------------------+
|SU2 binary restart                 |restart_flow.dat                   |
|Paraview                           |flow.vtu                           |
|Paraview surface                   |surface_flow.vtu                   |
+-----------------------------------------------------------------------+
+--------------------------------------+
|  Inner_Iter|   Time(sec)|    rms[Rho]|
+--------------------------------------+
|        2801|  9.6960e-02|   -2.394079|
|        2802|  9.6960e-02|   -2.285106|
|        2803|  9.6959e-02|   -2.261575|
|        2804|  9.6959e-02|   -2.395672|
|        2805|  9.6958e-02|   -2.269827|
|        2806|  9.6957e-02|   -2.282635|
|        2807|  9.6956e-02|   -2.214229|
|        2808|  9.6956e-02|   -2.365998|
|        2809|  9.6955e-02|   -2.379621|
|        2810|  9.6954e-02|   -2.198792|
|        2811|  9.6954e-02|   -2.292816|
|        2812|  9.6953e-02|   -2.308335|
|        2813|  9.6951e-02|   -2.256564|
|        2814|  9.6950e-02|   -2.384020|
|        2815|  9.6950e-02|   -2.265246|
|        2816|  9.6949e-02|   -2.363232|
|        2817|  9.6948e-02|   -2.280583|
|        2818|  9.6947e-02|   -2.386057|
|        2819|  9.6947e-02|   -2.279548|
|        2820|  9.6946e-02|   -2.393463|
|        2821|  9.6945e-02|   -2.266233|
|        2822|  9.6944e-02|   -2.281625|
|        2823|  9.6943e-02|   -2.278044|
|        2824|  9.6942e-02|   -2.393674|
|        2825|  9.6941e-02|   -2.267754|
|        2826|  9.6941e-02|   -2.283016|
|        2827|  9.6940e-02|   -2.263900|
|        2828|  9.6940e-02|   -2.210561|
|        2829|  9.6939e-02|   -2.386912|
|        2830|  9.6938e-02|   -2.384811|
|        2831|  9.6937e-02|   -2.275748|
|        2832|  9.6937e-02|   -2.233315|
|        2833|  9.6936e-02|   -2.250806|
|        2834|  9.6935e-02|   -2.267720|
|        2835|  9.6935e-02|   -2.284081|
|        2836|  9.6935e-02|   -2.299684|
|        2837|  9.6934e-02|   -2.315291|
|        2838|  9.6934e-02|   -2.220331|
|        2839|  9.6933e-02|   -2.364495|
|        2840|  9.6933e-02|   -2.378144|
|        2841|  9.6933e-02|   -2.242512|
|        2842|  9.6932e-02|   -2.401177|
|        2843|  9.6931e-02|   -2.251917|
|        2844|  9.6931e-02|   -2.408099|
|        2845|  9.6930e-02|   -2.189330|
|        2846|  9.6930e-02|   -2.200374|
|        2847|  9.6929e-02|   -2.277675|
|        2848|  9.6928e-02|   -2.293045|
|        2849|  9.6928e-02|   -2.307818|
|        2850|  9.6927e-02|   -2.208913|
|        2851|  9.6926e-02|   -2.379932|
|        2852|  9.6926e-02|   -2.392506|
|        2853|  9.6925e-02|   -2.242109|
|        2854|  9.6925e-02|   -2.401970|
|        2855|  9.6924e-02|   -2.267207|
|        2856|  9.6924e-02|   -2.405842|
|        2857|  9.6923e-02|   -2.276548|
|        2858|  9.6922e-02|   -2.399193|
|        2859|  9.6922e-02|   -2.260733|
|        2860|  9.6921e-02|   -2.192092|
|        2861|  9.6920e-02|   -2.384337|
|        2862|  9.6920e-02|   -2.397194|
|        2863|  9.6920e-02|   -2.202470|
|        2864|  9.6919e-02|   -2.386191|
|        2865|  9.6919e-02|   -2.400288|
|        2866|  9.6919e-02|   -2.278896|
|        2867|  9.6921e-02|   -2.375800|
|        2868|  9.6924e-02|   -2.253027|
|        2869|  9.6927e-02|   -2.266679|
|        2870|  9.6929e-02|   -2.281844|
|        2871|  9.6931e-02|   -2.262983|
|        2872|  9.6931e-02|   -2.203150|
|        2873|  9.6930e-02|   -2.388699|
|        2874|  9.6930e-02|   -2.402535|
|        2875|  9.6929e-02|   -2.281268|
|        2876|  9.6929e-02|   -2.204220|
|        2877|  9.6928e-02|   -2.270390|
|        2878|  9.6927e-02|   -2.388154|
|        2879|  9.6928e-02|   -2.281499|
|        2880|  9.6930e-02|   -2.264897|
|        2881|  9.6929e-02|   -2.280173|
|        2882|  9.6929e-02|   -2.270117|
|        2883|  9.6928e-02|   -2.403909|
|        2884|  9.6929e-02|   -2.281958|
|        2885|  9.6928e-02|   -2.266072|
|        2886|  9.6928e-02|   -2.280717|
|        2887|  9.6927e-02|   -2.271191|
|        2888|  9.6927e-02|   -2.401964|
|        2889|  9.6926e-02|   -2.282921|
|        2890|  9.6925e-02|   -2.249071|
|        2891|  9.6928e-02|   -2.265973|
|        2892|  9.6935e-02|   -2.282157|
|        2893|  9.6943e-02|   -2.214474|
|        2894|  9.6952e-02|   -2.375158|
|        2895|  9.6952e-02|   -2.389406|
|        2896|  9.6952e-02|   -2.267605|
|        2897|  9.6952e-02|   -2.396138|
|        2898|  9.6951e-02|   -2.192043|
|        2899|  9.6951e-02|   -2.203812|
|        2900|  9.6951e-02|   -2.266267|
+-----------------------------------------------------------------------+
|        File Writing Summary       |              Filename             |
+-----------------------------------------------------------------------+
|SU2 binary restart                 |restart_flow.dat                   |
|Paraview                           |flow.vtu                           |
|Paraview surface                   |surface_flow.vtu                   |
+-----------------------------------------------------------------------+
+--------------------------------------+
|  Inner_Iter|   Time(sec)|    rms[Rho]|
+--------------------------------------+
|        2901|  9.6952e-02|   -2.283202|
|        2902|  9.6951e-02|   -2.298444|
|        2903|  9.6951e-02|   -2.214159|
|        2904|  9.6951e-02|   -2.372536|
|        2905|  9.6952e-02|   -2.385239|
|        2906|  9.6955e-02|   -2.253769|
|        2907|  9.6957e-02|   -2.392453|
|        2908|  9.6958e-02|   -2.408161|
|        2909|  9.6971e-02|   -2.273971|
|        2910|  9.6984e-02|   -2.272815|
|        2911|  9.6999e-02|   -2.287394|
|        2912|  9.7015e-02|   -2.253736|
|        2913|  9.7021e-02|   -2.404453|
|        2914|  9.7031e-02|   -2.204763|
|        2915|  9.7041e-02|   -2.393212|
|        2916|  9.7053e-02|   -2.270359|
|        2917|  9.7056e-02|   -2.397775|
|        2918|  9.7060e-02|   -2.191927|
|        2919|  9.7067e-02|   -2.204139|
|        2920|  9.7067e-02|   -2.265874|
|        2921|  9.7068e-02|   -2.281283|
|        2922|  9.7069e-02|   -2.297230|
|        2923|  9.7069e-02|   -2.214804|
|        2924|  9.7068e-02|   -2.317824|
|        2925|  9.7068e-02|   -2.373701|
|        2926|  9.7070e-02|   -2.246872|
|        2927|  9.7070e-02|   -2.382405|
|        2928|  9.7069e-02|   -2.396655|
|        2929|  9.7068e-02|   -2.260979|
|        2930|  9.7069e-02|   -2.283128|
|        2931|  9.7068e-02|   -2.272194|
|        2932|  9.7071e-02|   -2.407908|
|        2933|  9.7075e-02|   -2.284642|
|        2934|  9.7078e-02|   -2.223059|
|        2935|  9.7082e-02|   -2.239926|
|        2936|  9.7088e-02|   -2.256767|
|        2937|  9.7090e-02|   -2.273311|
|        2938|  9.7090e-02|   -2.288022|
|        2939|  9.7090e-02|   -2.212047|
|        2940|  9.7090e-02|   -2.382443|
|        2941|  9.7089e-02|   -2.395846|
|        2942|  9.7089e-02|   -2.263435|
|        2943|  9.7089e-02|   -2.405513|
|        2944|  9.7088e-02|   -2.275699|
|        2945|  9.7088e-02|   -2.398689|
|        2946|  9.7089e-02|   -2.283533|
|        2947|  9.7089e-02|   -2.250122|
|        2948|  9.7090e-02|   -2.266051|
|        2949|  9.7094e-02|   -2.281430|
|        2950|  9.7099e-02|   -2.217441|
|        2951|  9.7105e-02|   -2.375961|
|        2952|  9.7105e-02|   -2.389589|
|        2953|  9.7104e-02|   -2.273686|
|        2954|  9.7118e-02|   -2.400529|
|        2955|  9.7121e-02|   -2.286396|
|        2956|  9.7121e-02|   -2.251543|
|        2957|  9.7120e-02|   -2.267097|
|        2958|  9.7119e-02|   -2.282221|
|        2959|  9.7119e-02|   -2.275844|
|        2960|  9.7118e-02|   -2.386674|
|        2961|  9.7117e-02|   -2.400561|
|        2962|  9.7117e-02|   -2.283855|
|        2963|  9.7116e-02|   -2.393963|
|        2964|  9.7115e-02|   -2.202203|
|        2965|  9.7115e-02|   -2.272393|
|        2966|  9.7114e-02|   -2.399299|
|        2967|  9.7113e-02|   -2.283407|
|        2968|  9.7112e-02|   -2.250754|
|        2969|  9.7112e-02|   -2.267377|
|        2970|  9.7111e-02|   -2.283104|
|        2971|  9.7110e-02|   -2.217204|
|        2972|  9.7110e-02|   -2.377003|
|        2973|  9.7109e-02|   -2.391126|
|        2974|  9.7108e-02|   -2.271676|
|        2975|  9.7107e-02|   -2.402106|
|        2976|  9.7107e-02|   -2.279322|
|        2977|  9.7106e-02|   -2.253843|
|        2978|  9.7105e-02|   -2.270111|
|        2979|  9.7104e-02|   -2.285837|
|        2980|  9.7104e-02|   -2.300822|
|        2981|  9.7104e-02|   -2.248312|
|        2982|  9.7103e-02|   -2.389992|
|        2983|  9.7106e-02|   -2.258513|
|        2984|  9.7118e-02|   -2.293603|
|        2985|  9.7127e-02|   -2.267168|
|        2986|  9.7133e-02|   -2.390184|
|        2987|  9.7137e-02|   -2.275594|
|        2988|  9.7148e-02|   -2.401445|
|        2989|  9.7147e-02|   -2.277444|
|        2990|  9.7147e-02|   -2.208997|
|        2991|  9.7146e-02|   -2.389803|
|        2992|  9.7146e-02|   -2.276659|
|        2993|  9.7145e-02|   -2.259381|
|        2994|  9.7145e-02|   -2.276528|
|        2995|  9.7144e-02|   -2.292272|
|        2996|  9.7144e-02|   -2.215801|
|        2997|  9.7143e-02|   -2.378426|
|        2998|  9.7143e-02|   -2.392129|
|        2999|  9.7142e-02|   -2.260098|

----------------------------- Solver Exit -------------------------------

Maximum number of iterations reached (ITER = 3000) before convergence.
+-----------------------------------------------------------------------+
|      Convergence Field     |     Value    |   Criterion  |  Converged |
+-----------------------------------------------------------------------+
|                    rms[Rho]|       -2.2601|         < -11|          No|
+-----------------------------------------------------------------------+
-------------------------------------------------------------------------
+-----------------------------------------------------------------------+
|        File Writing Summary       |              Filename             |
+-----------------------------------------------------------------------+
|SU2 binary restart                 |restart_flow.dat                   |
|Paraview                           |flow.vtu                           |
|Paraview surface                   |surface_flow.vtu                   |
+-----------------------------------------------------------------------+

------------------------- Solver Postprocessing -------------------------
Deleted CNumerics container.
Deleted CIntegration container.
Deleted CSolver container.
Deleted CIteration container.
Deleted CInterface container.
Deleted CGeometry container.
Deleted CFreeFormDefBox class.
Deleted CSurfaceMovement class.
Deleted CVolumetricMovement class.
Deleted CConfig container.
Deleted nInst container.
Deleted COutput class.
-------------------------------------------------------------------------

------------------------- Exit Success (SU2_CFD) ------------------------

