
-------------------------------------------------------------------------
|    ___ _   _ ___                                                      |
|   / __| | | |_  )   Release 7.0.3 "Blackbird"                         |
|   \__ \ |_| |/ /                                                      |
|   |___/\___//___|   Suite (Computational Fluid Dynamics Code)         |
|                                                                       |
-------------------------------------------------------------------------
| SU2 Project Website: https://su2code.github.io                        |
|                                                                       |
| The SU2 Project is maintained by the SU2 Foundation                   |
| (http://su2foundation.org)                                            |
-------------------------------------------------------------------------
| Copyright 2012-2020, SU2 Contributors                                 |
|                                                                       |
| SU2 is free software; you can redistribute it and/or                  |
| modify it under the terms of the GNU Lesser General Public            |
| License as published by the Free Software Foundation; either          |
| version 2.1 of the License, or (at your option) any later version.    |
|                                                                       |
| SU2 is distributed in the hope that it will be useful,                |
| but WITHOUT ANY WARRANTY; without even the implied warranty of        |
| MERCHANTABILITY or FITNESS FOR A PARTICULAR PURPOSE. See the GNU      |
| Lesser General Public License for more details.                       |
|                                                                       |
| You should have received a copy of the GNU Lesser General Public      |
| License along with SU2. If not, see <http://www.gnu.org/licenses/>.   |
-------------------------------------------------------------------------

Parsing config file for zone 0

----------------- Physical Case Definition ( Zone 0 ) -------------------
Compressible Euler equations.
Mach number: 1.7.
Angle of attack (AoA): 0 deg, and angle of sideslip (AoS): 0 deg.
Reading and writing binary SU2 native restart files.
Read flow solution from: flo_ini.dat.
Dimensional simulation.
The reference area is 1 m^2.
The semi-span will be computed using the max y(3D) value.
The reference length is 1 m.
Input mesh file name: adap.su2

--------------- Space Numerical Integration ( Zone 0 ) ------------------
Roe (with entropy fix = 0.001) solver for the flow inviscid terms.
Standard Roe without low-dissipation function.
First order integration in space.
Gradient for upwind reconstruction: inverse-distance weighted Least-Squares.
Gradient for viscous and source terms: inverse-distance weighted Least-Squares.

--------------- Time Numerical Integration  ( Zone 0 ) ------------------
Local time stepping (steady state simulation).
Euler implicit method for the flow equations.
FGMRES is used for solving the linear system.
Using a ILU(0) preconditioning.
Convergence criteria of the linear solver: 1e-06.
Max number of linear iterations: 20.
CFL adaptation. Factor down: 0.1, factor up: 2,
                lower limit: 0.1, upper limit: 100.
Courant-Friedrichs-Lewy number:      0.1

------------------ Convergence Criteria  ( Zone 0 ) ---------------------
Maximum number of solver subiterations: 1000.
Begin convergence monitoring at iteration 10.
Residual minimum value: 1e-11.
Cauchy series min. value: 1e-10.
Number of Cauchy elements: 100.
Begin windowed time average at iteration 0.

-------------------- Output Information ( Zone 0 ) ----------------------
Writing solution files every 100 iterations.
Writing the convergence history file every 1 inner iterations.
Writing the screen convergence history every 1 inner iterations.
The tabular file format is CSV (.csv).
Convergence history file name: history.
Forces breakdown file name: forces_breakdown.dat.
Surface file name: surface_flow.
Volume file name: flow.
Restart file name: flo.dat.

------------- Config File Boundary Information ( Zone 0 ) ---------------
+-----------------------------------------------------------------------+
|                        Marker Type|                        Marker Name|
+-----------------------------------------------------------------------+
|                         Euler wall|                                  4|
|                                   |                                  5|
+-----------------------------------------------------------------------+
|                     Symmetry plane|                                  2|
+-----------------------------------------------------------------------+
|                   Riemann boundary|                                  1|
|                                   |                                  3|
+-----------------------------------------------------------------------+

-------------------- Output Preprocessing ( Zone 0 ) --------------------
Screen output fields: INNER_ITER, WALL_TIME, RMS_DENSITY
History output group(s): ITER, RMS_RES, AERO_COEFF, FLOW_COEFF
Convergence field(s): RMS_DENSITY
Warning: No (valid) fields chosen for time convergence monitoring. Time convergence monitoring inactive.
Volume output fields: COORDINATES, SOLUTION, PRIMITIVE

------------------- Geometry Preprocessing ( Zone 0 ) -------------------
Two dimensional problem.
29072 grid points before partitioning.
57690 volume elements before partitioning.
5 surface markers.
40 boundary elements in index 0 (Marker = 1).
50 boundary elements in index 1 (Marker = 2).
187 boundary elements in index 2 (Marker = 3).
126 boundary elements in index 3 (Marker = 4).
49 boundary elements in index 4 (Marker = 5).
Executing the partitioning functions.
Building the graph adjacency structure.
Calling ParMETIS... graph partitioning complete (1161 edge cuts).
Distributing ParMETIS coloring.
Rebalancing vertices.
Rebalancing volume element connectivity.
Rebalancing markers and surface elements.
30244 vertices including ghost points. 
58852 interior elements including halo cells. 
58852 triangles.
Establishing MPI communication patterns.
Setting point connectivity.
Renumbering points (Reverse Cuthill McKee Ordering).
Recomputing point connectivity.
Setting element connectivity.
Checking the numerical grid orientation.
There has been a re-orientation of the LINE surface elements.
Identifying edges and vertices.
Computing centers of gravity.
Setting the control volume structure.
Area of the computational grid: 0.873239.
Searching for the closest normal neighbors to the surfaces.
Storing a mapping from global to local point index.
Compute the surface curvature.
Max K: 427.482. Mean K: 8.82617. Standard deviation K: 46.3763.
Checking for periodicity.
Computing mesh quality statistics for the dual control volumes.
+--------------------------------------------------------------+
|           Mesh Quality Metric|        Minimum|        Maximum|
+--------------------------------------------------------------+
|    Orthogonality Angle (deg.)|        1.26761|        89.9974|
|     CV Face Area Aspect Ratio|        1.00011|        89.2524|
|           CV Sub-Volume Ratio|              1|        129.494|
+--------------------------------------------------------------+
Finding max control volume width.
Communicating number of neighbors.
Wetted area = 0 m.
Area projection in the x-plane = 0 m, y-plane = 0 m.
Max. coordinate in the x-direction = -1e+10 m, y-direction = -1e+10 m.
Min. coordinate in the x-direction = 1e+10 m, y-direction = 1e+10 m.
Checking if Euler & Symmetry markers are straight/plane:
Boundary marker 4 is NOT a single straight.
Boundary marker 5 is NOT a single straight.
Boundary marker 2 is a single straight.
Computing wall distances.

-------------------- Solver Preprocessing ( Zone 0 ) --------------------
Inviscid flow: Computing density based on free-stream
temperature and pressure using the ideal gas law.
Force coefficients computed using free-stream values.

-- Models:
+------------------------------------------------------------------------------+
|          Viscosity Model|        Conductivity Model|              Fluid Model|
+------------------------------------------------------------------------------+
|                        -|                         -|                   VW_GAS|
+------------------------------------------------------------------------------+
-- Fluid properties:
+------------------------------------------------------------------------------+
|                  Name|    Dim. value|    Ref. value|      Unit|Non-dim. value|
+------------------------------------------------------------------------------+
|          Gas Constant|        35.152|             1|  N.m/kg.K|        35.152|
|      Spec. Heat Ratio|             -|             -|         -|        1.0125|
|     Critical Pressure|     1.415e+06|             1|          |     1.415e+06|
|  Critical Temperature|        564.09|             1|         K|        564.09|
+------------------------------------------------------------------------------+
-- Initial and free-stream conditions:
+------------------------------------------------------------------------------+
|                  Name|    Dim. value|    Ref. value|      Unit|Non-dim. value|
+------------------------------------------------------------------------------+
|       Static Pressure|    1.4999e+06|             1|        Pa|    1.4999e+06|
|               Density|         202.8|             1|    kg/m^3|         202.8|
|           Temperature|       571.712|             1|         K|       571.712|
|          Total Energy|     1.586e+06|             1|   m^2/s^2|     1.586e+06|
|            Velocity-X|       63.6063|             1|       m/s|       63.6063|
|            Velocity-Y|             0|             1|       m/s|             0|
|    Velocity Magnitude|       63.6063|             1|       m/s|       63.6063|
+------------------------------------------------------------------------------+
|           Mach Number|             -|             -|         -|           1.7|
+------------------------------------------------------------------------------+
Initialize Jacobian structure (Euler). MG level: 0.

------------------- Numerics Preprocessing ( Zone 0 ) -------------------

----------------- Integration Preprocessing ( Zone 0 ) ------------------

------------------- Iteration Preprocessing ( Zone 0 ) ------------------
Euler/Navier-Stokes/RANS fluid iteration.

------------------------------ Begin Solver -----------------------------

Simulation Run using the Single-zone Driver
+--------------------------------------+
|  Inner_Iter|   Time(sec)|    rms[Rho]|
+--------------------------------------+
|           0|  3.6272e-02|   -1.723931|
|           1|  3.7437e-02|   -1.734311|
|           2|  3.7757e-02|   -1.752567|
|           3|  3.8759e-02|   -1.780883|
|           4|  4.0176e-02|   -1.815612|
|           5|  4.1762e-02|   -1.844348|
|           6|  4.4053e-02|   -1.855882|
|           7|  4.7269e-02|   -1.845649|
|           8|  5.3056e-02|   -1.817363|
|           9|  5.8022e-02|   -1.796874|
|          10|  6.2275e-02|   -1.801754|
|          11|  6.6203e-02|   -1.819183|
|          12|  6.9471e-02|   -1.886975|
|          13|  7.2248e-02|   -1.900094|
|          14|  7.4643e-02|   -1.833067|
|          15|  7.6982e-02|   -1.786145|
|          16|  7.8971e-02|   -1.702202|
|          17|  8.1094e-02|   -1.638121|
|          18|  8.2598e-02|   -1.590424|
|          19|  8.3683e-02|   -1.546127|
|          20|  8.4647e-02|   -1.509885|
|          21|  8.5542e-02|   -1.439184|
|          22|  8.6288e-02|   -1.415775|
|          23|  8.7069e-02|   -1.378493|
|          24|  8.7941e-02|   -1.336190|
|          25|  8.8714e-02|   -1.429552|
|          26|  8.9433e-02|   -1.170856|
|          27|  8.9975e-02|   -1.174546|
|          28|  9.0377e-02|   -1.208761|
|          29|  9.0731e-02|   -1.250303|
|          30|  9.1085e-02|   -1.301700|
|          31|  9.1404e-02|   -1.178354|
|          32|  9.1774e-02|   -1.270983|
|          33|  9.2099e-02|   -1.025271|
|          34|  9.2352e-02|   -1.255574|
|          35|  9.2713e-02|   -1.187830|
|          36|  9.3002e-02|   -1.197326|
|          37|  9.3232e-02|   -1.172491|
|          38|  9.3464e-02|   -1.201533|
|          39|  9.3751e-02|   -1.108067|
|          40|  9.3929e-02|   -0.932040|
|          41|  9.5288e-02|   -1.036183|
|          42|  9.6706e-02|   -0.850537|
|          43|  9.7522e-02|   -1.089321|
|          44|  9.7608e-02|   -1.013366|
|          45|  9.7662e-02|   -0.986066|
|          46|  9.7758e-02|   -1.228084|
|          47|  9.7837e-02|   -1.025940|
|          48|  9.7897e-02|   -0.952695|
|          49|  9.7965e-02|   -1.018760|
|          50|  9.8018e-02|   -0.761469|
|          51|  9.8063e-02|   -0.974588|
|          52|  9.8137e-02|   -1.053915|
|          53|  9.8201e-02|   -1.189312|
|          54|  9.8242e-02|   -1.096671|
|          55|  9.8273e-02|   -0.904123|
|          56|  9.8304e-02|   -0.762109|
|          57|  9.8330e-02|   -0.670274|
|          58|  9.8383e-02|   -0.933390|
|          59|  9.8434e-02|   -0.787065|
|          60|  9.8463e-02|   -1.048012|
|          61|  9.8486e-02|   -1.143704|
|          62|  9.8504e-02|   -1.034302|
|          63|  9.8543e-02|   -0.871026|
|          64|  9.8622e-02|   -0.763965|
|          65|  9.8683e-02|   -0.888486|
|          66|  9.8805e-02|   -1.135758|
|          67|  9.8931e-02|   -0.905636|
|          68|  9.9043e-02|   -1.055827|
|          69|  9.9151e-02|   -0.894995|
|          70|  9.9258e-02|   -0.926820|
|          71|  9.9386e-02|   -0.794046|
|          72|  9.9455e-02|   -0.917936|
|          73|  9.9553e-02|   -0.839902|
|          74|  1.0000e-01|   -0.749816|
|          75|  1.0046e-01|   -0.808022|
|          76|  1.0083e-01|   -0.941915|
|          77|  1.0099e-01|   -0.771461|
|          78|  1.0104e-01|   -0.967528|
|          79|  1.0107e-01|   -1.145399|
|          80|  1.0107e-01|   -0.666504|
|          81|  1.0107e-01|   -0.856425|
|          82|  1.0109e-01|   -0.890185|
|          83|  1.0108e-01|   -0.636104|
|          84|  1.0107e-01|   -0.768972|
|          85|  1.0106e-01|   -1.072624|
|          86|  1.0106e-01|   -1.144423|
|          87|  1.0106e-01|   -1.001200|
|          88|  1.0105e-01|   -0.884749|
|          89|  1.0104e-01|   -0.774790|
|          90|  1.0103e-01|   -0.853592|
|          91|  1.0102e-01|   -0.910789|
|          92|  1.0101e-01|   -0.609918|
|          93|  1.0101e-01|   -0.774337|
|          94|  1.0100e-01|   -0.974077|
|          95|  1.0099e-01|   -0.688989|
|          96|  1.0098e-01|   -0.779568|
|          97|  1.0098e-01|   -1.051713|
|          98|  1.0097e-01|   -0.718352|
|          99|  1.0099e-01|   -0.888391|
|         100|  1.0099e-01|   -0.686292|
+-----------------------------------------------------------------------+
|        File Writing Summary       |              Filename             |
+-----------------------------------------------------------------------+
|SU2 restart                        |flo.dat                            |
|Paraview binary                    |flow.vtk                           |
|Paraview binary surface            |surface_flow.vtk                   |
+-----------------------------------------------------------------------+
+--------------------------------------+
|  Inner_Iter|   Time(sec)|    rms[Rho]|
+--------------------------------------+
|         101|  1.0115e-01|   -0.912486|
|         102|  1.0118e-01|   -0.903912|
|         103|  1.0123e-01|   -0.800000|
|         104|  1.0124e-01|   -0.752779|
|         105|  1.0128e-01|   -0.592286|
|         106|  1.0127e-01|   -0.679565|
|         107|  1.0126e-01|   -0.959767|
|         108|  1.0125e-01|   -0.837208|
|         109|  1.0125e-01|   -0.731767|
|         110|  1.0128e-01|   -0.717210|
|         111|  1.0128e-01|   -0.885055|
|         112|  1.0127e-01|   -0.845248|
|         113|  1.0126e-01|   -0.868101|
|         114|  1.0125e-01|   -0.819740|
|         115|  1.0124e-01|   -0.640792|
|         116|  1.0123e-01|   -0.752621|
|         117|  1.0122e-01|   -0.740444|
|         118|  1.0121e-01|   -0.907781|
|         119|  1.0121e-01|   -0.756032|
|         120|  1.0120e-01|   -0.703825|
|         121|  1.0120e-01|   -0.725662|
|         122|  1.0119e-01|   -0.809171|
|         123|  1.0118e-01|   -0.776419|
|         124|  1.0117e-01|   -0.673055|
|         125|  1.0116e-01|   -0.577942|
|         126|  1.0116e-01|   -0.643976|
|         127|  1.0115e-01|   -0.626170|
|         128|  1.0114e-01|   -0.793797|
|         129|  1.0115e-01|   -0.857412|
|         130|  1.0114e-01|   -0.986316|
|         131|  1.0114e-01|   -0.962576|
|         132|  1.0118e-01|   -0.826406|
|         133|  1.0117e-01|   -0.779171|
|         134|  1.0116e-01|   -0.710005|
|         135|  1.0117e-01|   -0.682522|
|         136|  1.0116e-01|   -0.847580|
|         137|  1.0115e-01|   -0.811981|
|         138|  1.0114e-01|   -0.692307|
|         139|  1.0113e-01|   -0.609781|
|         140|  1.0113e-01|   -0.668518|
|         141|  1.0112e-01|   -0.481722|
|         142|  1.0111e-01|   -0.766740|
|         143|  1.0111e-01|   -0.525754|
|         144|  1.0110e-01|   -0.773168|
|         145|  1.0109e-01|   -0.712650|
|         146|  1.0108e-01|   -0.702538|
|         147|  1.0108e-01|   -0.849337|
|         148|  1.0107e-01|   -0.692745|
|         149|  1.0108e-01|   -0.625711|
|         150|  1.0107e-01|   -0.888790|
|         151|  1.0106e-01|   -0.766710|
|         152|  1.0110e-01|   -0.789776|
|         153|  1.0109e-01|   -0.476556|
|         154|  1.0109e-01|   -0.807374|
|         155|  1.0108e-01|   -0.659155|
|         156|  1.0107e-01|   -0.639493|
|         157|  1.0106e-01|   -0.861748|
|         158|  1.0108e-01|   -0.665430|
|         159|  1.0107e-01|   -0.727830|
|         160|  1.0107e-01|   -0.853122|
|         161|  1.0107e-01|   -0.883490|
|         162|  1.0106e-01|   -0.938796|
|         163|  1.0106e-01|   -0.839062|
|         164|  1.0105e-01|   -0.638233|
|         165|  1.0105e-01|   -0.518068|
|         166|  1.0108e-01|   -0.732738|
|         167|  1.0110e-01|   -0.803296|
|         168|  1.0112e-01|   -0.781295|
|         169|  1.0116e-01|   -0.825263|
|         170|  1.0119e-01|   -0.929270|
|         171|  1.0127e-01|   -0.704935|
|         172|  1.0131e-01|   -0.968365|
|         173|  1.0131e-01|   -0.685389|
|         174|  1.0130e-01|   -0.797866|
|         175|  1.0129e-01|   -0.531355|
|         176|  1.0128e-01|   -0.936859|
|         177|  1.0127e-01|   -0.735518|
|         178|  1.0127e-01|   -0.823977|
|         179|  1.0126e-01|   -0.715812|
|         180|  1.0126e-01|   -0.789149|
|         181|  1.0125e-01|   -0.689192|
|         182|  1.0125e-01|   -0.724458|
|         183|  1.0125e-01|   -0.590503|
|         184|  1.0124e-01|   -0.875725|
|         185|  1.0123e-01|   -0.911350|
|         186|  1.0122e-01|   -0.878054|
|         187|  1.0122e-01|   -0.838216|
|         188|  1.0121e-01|   -0.880344|
|         189|  1.0121e-01|   -0.949424|
|         190|  1.0120e-01|   -0.723153|
|         191|  1.0120e-01|   -0.745979|
|         192|  1.0119e-01|   -0.647416|
|         193|  1.0119e-01|   -0.597565|
|         194|  1.0118e-01|   -0.851005|
|         195|  1.0117e-01|   -0.842385|
|         196|  1.0116e-01|   -1.001540|
|         197|  1.0116e-01|   -0.867063|
|         198|  1.0115e-01|   -0.823962|
|         199|  1.0115e-01|   -0.838119|
|         200|  1.0114e-01|   -0.719198|
+-----------------------------------------------------------------------+
|        File Writing Summary       |              Filename             |
+-----------------------------------------------------------------------+
|SU2 restart                        |flo.dat                            |
|Paraview binary                    |flow.vtk                           |
|Paraview binary surface            |surface_flow.vtk                   |
+-----------------------------------------------------------------------+
+--------------------------------------+
|  Inner_Iter|   Time(sec)|    rms[Rho]|
+--------------------------------------+
|         201|  1.0121e-01|   -0.906535|
|         202|  1.0121e-01|   -0.737964|
|         203|  1.0121e-01|   -0.824291|
|         204|  1.0121e-01|   -0.690105|
|         205|  1.0120e-01|   -0.601390|
|         206|  1.0119e-01|   -0.715018|
|         207|  1.0119e-01|   -0.512452|
|         208|  1.0118e-01|   -0.577286|
|         209|  1.0118e-01|   -0.765103|
|         210|  1.0117e-01|   -0.756221|
|         211|  1.0117e-01|   -0.652435|
|         212|  1.0117e-01|   -0.861955|
|         213|  1.0116e-01|   -0.932740|
|         214|  1.0116e-01|   -0.956477|
|         215|  1.0115e-01|   -0.867030|
|         216|  1.0114e-01|   -0.659507|
|         217|  1.0114e-01|   -0.931399|
|         218|  1.0113e-01|   -0.805054|
|         219|  1.0113e-01|   -0.716345|
|         220|  1.0112e-01|   -0.910540|
|         221|  1.0112e-01|   -0.937531|
|         222|  1.0111e-01|   -0.901598|
|         223|  1.0110e-01|   -0.921106|
|         224|  1.0110e-01|   -1.040010|
|         225|  1.0109e-01|   -1.030952|
|         226|  1.0109e-01|   -1.062301|
|         227|  1.0108e-01|   -0.934906|
|         228|  1.0108e-01|   -1.028286|
|         229|  1.0107e-01|   -0.775878|
|         230|  1.0106e-01|   -1.019495|
|         231|  1.0107e-01|   -0.965696|
|         232|  1.0107e-01|   -1.065049|
|         233|  1.0107e-01|   -1.048915|
|         234|  1.0106e-01|   -1.017885|
|         235|  1.0106e-01|   -0.973563|
|         236|  1.0105e-01|   -0.877251|
|         237|  1.0105e-01|   -0.889108|
|         238|  1.0104e-01|   -0.852005|
|         239|  1.0104e-01|   -0.880991|
|         240|  1.0103e-01|   -0.912745|
|         241|  1.0103e-01|   -0.987985|
|         242|  1.0102e-01|   -0.972602|
|         243|  1.0102e-01|   -0.977283|
|         244|  1.0102e-01|   -0.859059|
|         245|  1.0101e-01|   -1.011102|
|         246|  1.0101e-01|   -1.019546|
|         247|  1.0101e-01|   -0.944004|
|         248|  1.0100e-01|   -1.040912|
|         249|  1.0100e-01|   -0.919308|
|         250|  1.0100e-01|   -1.039295|
|         251|  1.0099e-01|   -0.827102|
|         252|  1.0099e-01|   -1.035477|
|         253|  1.0099e-01|   -0.880350|
|         254|  1.0098e-01|   -1.015654|
|         255|  1.0098e-01|   -0.968871|
|         256|  1.0097e-01|   -0.976711|
|         257|  1.0097e-01|   -0.952180|
|         258|  1.0098e-01|   -0.929951|
|         259|  1.0097e-01|   -0.894012|
|         260|  1.0097e-01|   -0.989185|
|         261|  1.0097e-01|   -0.904254|
|         262|  1.0096e-01|   -0.899621|
|         263|  1.0096e-01|   -0.963744|
|         264|  1.0096e-01|   -0.821410|
|         265|  1.0095e-01|   -0.878420|
|         266|  1.0095e-01|   -1.007777|
|         267|  1.0094e-01|   -0.893666|
|         268|  1.0094e-01|   -1.037438|
|         269|  1.0094e-01|   -0.919925|
|         270|  1.0093e-01|   -1.034000|
|         271|  1.0094e-01|   -0.853677|
|         272|  1.0094e-01|   -0.870354|
|         273|  1.0094e-01|   -0.957178|
|         274|  1.0093e-01|   -0.873411|
|         275|  1.0093e-01|   -0.788759|
|         276|  1.0093e-01|   -1.120621|
|         277|  1.0092e-01|   -0.795433|
|         278|  1.0092e-01|   -1.030707|
|         279|  1.0091e-01|   -0.967029|
|         280|  1.0091e-01|   -1.079890|
|         281|  1.0091e-01|   -1.008551|
|         282|  1.0091e-01|   -0.972135|
|         283|  1.0091e-01|   -0.965843|
|         284|  1.0090e-01|   -0.949515|
|         285|  1.0090e-01|   -1.018982|
|         286|  1.0090e-01|   -0.843784|
|         287|  1.0089e-01|   -0.962736|
|         288|  1.0091e-01|   -0.796633|
|         289|  1.0094e-01|   -0.967948|
|         290|  1.0094e-01|   -0.866078|
|         291|  1.0094e-01|   -0.903797|
|         292|  1.0093e-01|   -1.026292|
|         293|  1.0093e-01|   -0.991307|
|         294|  1.0093e-01|   -1.028789|
|         295|  1.0092e-01|   -0.853426|
|         296|  1.0092e-01|   -0.992294|
|         297|  1.0092e-01|   -0.950265|
|         298|  1.0092e-01|   -0.996277|
|         299|  1.0092e-01|   -0.950736|
|         300|  1.0091e-01|   -1.051472|
+-----------------------------------------------------------------------+
|        File Writing Summary       |              Filename             |
+-----------------------------------------------------------------------+
|SU2 restart                        |flo.dat                            |
|Paraview binary                    |flow.vtk                           |
|Paraview binary surface            |surface_flow.vtk                   |
+-----------------------------------------------------------------------+
+--------------------------------------+
|  Inner_Iter|   Time(sec)|    rms[Rho]|
+--------------------------------------+
|         301|  1.0095e-01|   -1.028340|
|         302|  1.0095e-01|   -0.957643|
|         303|  1.0095e-01|   -0.955499|
|         304|  1.0095e-01|   -1.073656|
|         305|  1.0094e-01|   -1.028472|
|         306|  1.0094e-01|   -1.070063|
|         307|  1.0094e-01|   -0.948927|
|         308|  1.0094e-01|   -0.948031|
|         309|  1.0093e-01|   -0.991383|
|         310|  1.0093e-01|   -0.726945|
|         311|  1.0093e-01|   -0.927945|
|         312|  1.0092e-01|   -1.012515|
|         313|  1.0092e-01|   -1.055724|
|         314|  1.0092e-01|   -1.026824|
|         315|  1.0091e-01|   -0.805143|
|         316|  1.0091e-01|   -0.946245|
|         317|  1.0091e-01|   -0.705889|
|         318|  1.0092e-01|   -0.957840|
|         319|  1.0092e-01|   -0.922460|
|         320|  1.0092e-01|   -1.045348|
|         321|  1.0092e-01|   -1.014301|
|         322|  1.0091e-01|   -0.939933|
|         323|  1.0091e-01|   -0.903012|
|         324|  1.0092e-01|   -1.014699|
|         325|  1.0093e-01|   -0.992735|
|         326|  1.0094e-01|   -0.691772|
|         327|  1.0096e-01|   -0.826193|
|         328|  1.0098e-01|   -1.078469|
|         329|  1.0100e-01|   -1.020145|
|         330|  1.0104e-01|   -0.969954|
|         331|  1.0106e-01|   -0.749156|
|         332|  1.0110e-01|   -0.929569|
|         333|  1.0115e-01|   -0.971544|
|         334|  1.0120e-01|   -1.102589|
|         335|  1.0123e-01|   -0.973533|
|         336|  1.0123e-01|   -0.951674|
|         337|  1.0123e-01|   -0.904592|
|         338|  1.0123e-01|   -1.001440|
|         339|  1.0123e-01|   -0.954784|
|         340|  1.0122e-01|   -1.018152|
|         341|  1.0122e-01|   -0.864185|
|         342|  1.0121e-01|   -0.854380|
|         343|  1.0121e-01|   -0.947081|
|         344|  1.0121e-01|   -1.140610|
|         345|  1.0120e-01|   -1.036923|
|         346|  1.0120e-01|   -1.139711|
|         347|  1.0120e-01|   -0.873240|
|         348|  1.0120e-01|   -1.050501|
|         349|  1.0119e-01|   -0.971914|
|         350|  1.0119e-01|   -1.076093|
|         351|  1.0119e-01|   -0.866884|
|         352|  1.0118e-01|   -1.089989|
|         353|  1.0118e-01|   -0.869329|
|         354|  1.0118e-01|   -1.067711|
|         355|  1.0117e-01|   -0.735032|
|         356|  1.0117e-01|   -1.055514|
|         357|  1.0117e-01|   -0.992258|
|         358|  1.0117e-01|   -0.747210|
|         359|  1.0116e-01|   -0.906538|
|         360|  1.0116e-01|   -1.082398|
|         361|  1.0116e-01|   -0.893164|
|         362|  1.0115e-01|   -1.027250|
|         363|  1.0115e-01|   -0.854520|
|         364|  1.0115e-01|   -1.020733|
|         365|  1.0115e-01|   -0.995020|
|         366|  1.0115e-01|   -1.074505|
|         367|  1.0114e-01|   -0.876823|
|         368|  1.0114e-01|   -1.038798|
|         369|  1.0114e-01|   -0.814868|
|         370|  1.0114e-01|   -1.044850|
|         371|  1.0114e-01|   -0.805620|
|         372|  1.0114e-01|   -1.081522|
|         373|  1.0113e-01|   -0.875102|
|         374|  1.0115e-01|   -1.080446|
|         375|  1.0115e-01|   -0.775874|
|         376|  1.0117e-01|   -1.083213|
|         377|  1.0119e-01|   -1.024977|
|         378|  1.0120e-01|   -1.024712|
|         379|  1.0120e-01|   -0.902903|
|         380|  1.0120e-01|   -0.985136|
|         381|  1.0121e-01|   -0.930039|
|         382|  1.0121e-01|   -0.741451|
|         383|  1.0120e-01|   -0.895122|
|         384|  1.0120e-01|   -1.045883|
|         385|  1.0120e-01|   -0.894483|
|         386|  1.0120e-01|   -0.910549|
|         387|  1.0120e-01|   -0.941915|
|         388|  1.0123e-01|   -1.020903|
|         389|  1.0128e-01|   -0.758209|
|         390|  1.0131e-01|   -0.879239|
|         391|  1.0132e-01|   -0.800361|
|         392|  1.0134e-01|   -0.882432|
|         393|  1.0135e-01|   -0.982179|
|         394|  1.0137e-01|   -1.055410|
|         395|  1.0142e-01|   -0.978341|
|         396|  1.0147e-01|   -0.892538|
|         397|  1.0150e-01|   -1.028290|
|         398|  1.0154e-01|   -1.077044|
|         399|  1.0155e-01|   -0.906172|
|         400|  1.0155e-01|   -0.859618|
+-----------------------------------------------------------------------+
|        File Writing Summary       |              Filename             |
+-----------------------------------------------------------------------+
|SU2 restart                        |flo.dat                            |
|Paraview binary                    |flow.vtk                           |
|Paraview binary surface            |surface_flow.vtk                   |
+-----------------------------------------------------------------------+
+--------------------------------------+
|  Inner_Iter|   Time(sec)|    rms[Rho]|
+--------------------------------------+
|         401|  1.0159e-01|   -0.951178|
|         402|  1.0159e-01|   -0.862953|
|         403|  1.0159e-01|   -0.897330|
|         404|  1.0159e-01|   -0.686278|
|         405|  1.0159e-01|   -0.948359|
|         406|  1.0160e-01|   -1.037975|
|         407|  1.0161e-01|   -0.706235|
|         408|  1.0161e-01|   -0.899387|
|         409|  1.0162e-01|   -0.953508|
|         410|  1.0163e-01|   -0.810079|
|         411|  1.0164e-01|   -0.778478|
|         412|  1.0165e-01|   -0.868270|
|         413|  1.0169e-01|   -0.806047|
|         414|  1.0178e-01|   -0.853967|
|         415|  1.0180e-01|   -0.761829|
|         416|  1.0189e-01|   -0.874737|
|         417|  1.0195e-01|   -0.857338|
|         418|  1.0198e-01|   -1.096363|
|         419|  1.0209e-01|   -0.803995|
|         420|  1.0217e-01|   -0.851961|
|         421|  1.0220e-01|   -0.901624|
|         422|  1.0221e-01|   -1.027012|
|         423|  1.0221e-01|   -0.652674|
|         424|  1.0221e-01|   -1.017615|
|         425|  1.0221e-01|   -0.919097|
|         426|  1.0222e-01|   -0.616914|
|         427|  1.0224e-01|   -0.818834|
|         428|  1.0223e-01|   -0.989847|
|         429|  1.0225e-01|   -0.795919|
|         430|  1.0224e-01|   -1.025669|
|         431|  1.0224e-01|   -0.973402|
|         432|  1.0228e-01|   -0.949412|
|         433|  1.0236e-01|   -0.880602|
|         434|  1.0242e-01|   -0.794734|
|         435|  1.0242e-01|   -0.752277|
|         436|  1.0249e-01|   -0.995868|
|         437|  1.0257e-01|   -0.903964|
|         438|  1.0263e-01|   -0.939458|
|         439|  1.0263e-01|   -0.697599|
|         440|  1.0269e-01|   -1.073266|
|         441|  1.0274e-01|   -0.824968|
|         442|  1.0279e-01|   -0.974012|
|         443|  1.0286e-01|   -0.620612|
|         444|  1.0289e-01|   -0.661673|
|         445|  1.0289e-01|   -0.915536|
|         446|  1.0289e-01|   -0.882131|
|         447|  1.0292e-01|   -0.925522|
|         448|  1.0298e-01|   -1.020720|
|         449|  1.0309e-01|   -0.900848|
|         450|  1.0318e-01|   -1.115159|
|         451|  1.0327e-01|   -0.827643|
|         452|  1.0330e-01|   -1.079085|
|         453|  1.0331e-01|   -0.807315|
|         454|  1.0332e-01|   -1.007533|
|         455|  1.0331e-01|   -0.854145|
|         456|  1.0331e-01|   -1.110950|
|         457|  1.0332e-01|   -0.927211|
|         458|  1.0332e-01|   -0.880682|
|         459|  1.0332e-01|   -0.873908|
|         460|  1.0333e-01|   -1.099211|
|         461|  1.0335e-01|   -0.866474|
|         462|  1.0340e-01|   -0.958591|
|         463|  1.0343e-01|   -0.880050|
|         464|  1.0345e-01|   -0.913358|
|         465|  1.0346e-01|   -0.769752|
|         466|  1.0346e-01|   -1.074426|
|         467|  1.0347e-01|   -0.831158|
|         468|  1.0348e-01|   -1.044838|
|         469|  1.0351e-01|   -0.889471|
|         470|  1.0354e-01|   -1.012912|
|         471|  1.0361e-01|   -0.795545|
|         472|  1.0371e-01|   -1.080840|
|         473|  1.0381e-01|   -0.877524|
|         474|  1.0388e-01|   -1.083845|
|         475|  1.0398e-01|   -0.767367|
|         476|  1.0400e-01|   -1.036763|
|         477|  1.0401e-01|   -0.931230|
|         478|  1.0403e-01|   -1.064396|
|         479|  1.0405e-01|   -0.788604|
|         480|  1.0405e-01|   -1.035229|
|         481|  1.0406e-01|   -0.853067|
|         482|  1.0407e-01|   -1.033354|
|         483|  1.0407e-01|   -0.847337|
|         484|  1.0406e-01|   -1.002473|
|         485|  1.0411e-01|   -0.896545|
|         486|  1.0423e-01|   -1.004513|
|         487|  1.0432e-01|   -0.881393|
|         488|  1.0440e-01|   -0.965575|
|         489|  1.0452e-01|   -0.897101|
|         490|  1.0463e-01|   -1.028617|
|         491|  1.0468e-01|   -0.859131|
|         492|  1.0479e-01|   -0.893238|
|         493|  1.0486e-01|   -0.900419|
|         494|  1.0487e-01|   -1.036699|
|         495|  1.0488e-01|   -0.896880|
|         496|  1.0489e-01|   -1.044526|
|         497|  1.0493e-01|   -0.913757|
|         498|  1.0504e-01|   -1.039532|
|         499|  1.0516e-01|   -0.796760|
|         500|  1.0517e-01|   -1.006128|
+-----------------------------------------------------------------------+
|        File Writing Summary       |              Filename             |
+-----------------------------------------------------------------------+
|SU2 restart                        |flo.dat                            |
|Paraview binary                    |flow.vtk                           |
|Paraview binary surface            |surface_flow.vtk                   |
+-----------------------------------------------------------------------+
+--------------------------------------+
|  Inner_Iter|   Time(sec)|    rms[Rho]|
+--------------------------------------+
|         501|  1.0524e-01|   -0.923281|
|         502|  1.0527e-01|   -1.016065|
|         503|  1.0526e-01|   -0.838368|
|         504|  1.0526e-01|   -0.957767|
|         505|  1.0526e-01|   -0.854300|
|         506|  1.0525e-01|   -0.979015|
|         507|  1.0523e-01|   -0.836005|
|         508|  1.0522e-01|   -0.867337|
|         509|  1.0521e-01|   -0.897004|
|         510|  1.0522e-01|   -1.105202|
|         511|  1.0522e-01|   -0.852925|
|         512|  1.0523e-01|   -1.077093|
|         513|  1.0524e-01|   -0.786806|
|         514|  1.0526e-01|   -0.927583|
|         515|  1.0527e-01|   -0.935532|
|         516|  1.0527e-01|   -1.055482|
|         517|  1.0527e-01|   -0.892695|
|         518|  1.0527e-01|   -0.926373|
|         519|  1.0527e-01|   -0.920793|
|         520|  1.0529e-01|   -0.942086|
|         521|  1.0529e-01|   -0.947656|
|         522|  1.0530e-01|   -0.835657|
|         523|  1.0531e-01|   -0.907264|
|         524|  1.0531e-01|   -1.075894|
|         525|  1.0531e-01|   -0.970632|
|         526|  1.0531e-01|   -0.881632|
|         527|  1.0531e-01|   -0.937524|
|         528|  1.0531e-01|   -1.009288|
|         529|  1.0531e-01|   -0.921035|
|         530|  1.0531e-01|   -0.978675|
|         531|  1.0531e-01|   -0.846708|
|         532|  1.0531e-01|   -0.916212|
|         533|  1.0532e-01|   -0.947987|
|         534|  1.0532e-01|   -0.793468|
|         535|  1.0533e-01|   -0.800139|
|         536|  1.0533e-01|   -0.959614|
|         537|  1.0533e-01|   -0.944531|
|         538|  1.0534e-01|   -1.057664|
|         539|  1.0534e-01|   -0.952597|
|         540|  1.0534e-01|   -1.052676|
|         541|  1.0535e-01|   -0.977854|
|         542|  1.0536e-01|   -1.094111|
|         543|  1.0537e-01|   -0.937672|
|         544|  1.0539e-01|   -0.989145|
|         545|  1.0539e-01|   -0.970077|
|         546|  1.0539e-01|   -1.000278|
|         547|  1.0538e-01|   -0.923781|
|         548|  1.0538e-01|   -0.976904|
|         549|  1.0537e-01|   -0.948007|
|         550|  1.0536e-01|   -0.871930|
|         551|  1.0536e-01|   -0.906076|
|         552|  1.0535e-01|   -1.040942|
|         553|  1.0534e-01|   -0.957077|
|         554|  1.0533e-01|   -0.976979|
|         555|  1.0534e-01|   -0.905986|
|         556|  1.0534e-01|   -0.999449|
|         557|  1.0534e-01|   -0.930477|
|         558|  1.0534e-01|   -0.923178|
|         559|  1.0535e-01|   -0.861460|
|         560|  1.0536e-01|   -1.043695|
|         561|  1.0537e-01|   -0.897338|
|         562|  1.0538e-01|   -1.057175|
|         563|  1.0539e-01|   -0.804425|
|         564|  1.0539e-01|   -0.947073|
|         565|  1.0540e-01|   -0.834599|
|         566|  1.0540e-01|   -1.053576|
|         567|  1.0540e-01|   -0.776975|
|         568|  1.0539e-01|   -1.012954|
|         569|  1.0539e-01|   -0.929040|
|         570|  1.0538e-01|   -0.986292|
|         571|  1.0537e-01|   -0.907624|
|         572|  1.0536e-01|   -0.876345|
|         573|  1.0535e-01|   -0.943188|
|         574|  1.0534e-01|   -0.950050|
|         575|  1.0533e-01|   -0.908202|
|         576|  1.0532e-01|   -0.792759|
|         577|  1.0532e-01|   -1.008392|
|         578|  1.0531e-01|   -0.995245|
|         579|  1.0530e-01|   -0.958096|
|         580|  1.0529e-01|   -0.959839|
|         581|  1.0528e-01|   -0.977437|
|         582|  1.0527e-01|   -0.937187|
|         583|  1.0526e-01|   -0.875282|
|         584|  1.0526e-01|   -0.808954|
|         585|  1.0525e-01|   -0.995650|
|         586|  1.0524e-01|   -0.868437|
|         587|  1.0523e-01|   -0.924248|
|         588|  1.0522e-01|   -0.891766|
|         589|  1.0522e-01|   -0.964319|
|         590|  1.0521e-01|   -0.923542|
|         591|  1.0520e-01|   -0.938456|
|         592|  1.0519e-01|   -0.933222|
|         593|  1.0519e-01|   -1.030580|
|         594|  1.0518e-01|   -0.985180|
|         595|  1.0517e-01|   -0.866421|
|         596|  1.0516e-01|   -0.986888|
|         597|  1.0516e-01|   -0.958253|
|         598|  1.0516e-01|   -0.849903|
|         599|  1.0515e-01|   -0.961825|
|         600|  1.0518e-01|   -0.941866|
+-----------------------------------------------------------------------+
|        File Writing Summary       |              Filename             |
+-----------------------------------------------------------------------+
|SU2 restart                        |flo.dat                            |
|Paraview binary                    |flow.vtk                           |
|Paraview binary surface            |surface_flow.vtk                   |
+-----------------------------------------------------------------------+
+--------------------------------------+
|  Inner_Iter|   Time(sec)|    rms[Rho]|
+--------------------------------------+
|         601|  1.0524e-01|   -0.988083|
|         602|  1.0528e-01|   -0.966193|
|         603|  1.0530e-01|   -0.899303|
|         604|  1.0531e-01|   -1.001875|
|         605|  1.0531e-01|   -1.011084|
|         606|  1.0530e-01|   -0.902337|
|         607|  1.0530e-01|   -0.921069|
|         608|  1.0531e-01|   -0.883952|
|         609|  1.0530e-01|   -0.818388|
|         610|  1.0530e-01|   -0.958335|
|         611|  1.0531e-01|   -0.749139|
|         612|  1.0531e-01|   -1.053477|
|         613|  1.0531e-01|   -0.850546|
|         614|  1.0530e-01|   -1.072245|
|         615|  1.0532e-01|   -0.874154|
|         616|  1.0533e-01|   -1.066413|
|         617|  1.0538e-01|   -0.836699|
|         618|  1.0540e-01|   -0.767656|
|         619|  1.0540e-01|   -0.859945|
|         620|  1.0542e-01|   -0.975147|
|         621|  1.0548e-01|   -0.773055|
|         622|  1.0555e-01|   -1.070256|
|         623|  1.0557e-01|   -0.870755|
|         624|  1.0556e-01|   -0.952320|
|         625|  1.0558e-01|   -0.837995|
|         626|  1.0558e-01|   -1.047272|
|         627|  1.0557e-01|   -0.930399|
|         628|  1.0557e-01|   -1.126646|
|         629|  1.0559e-01|   -0.886536|
|         630|  1.0558e-01|   -1.050165|
|         631|  1.0559e-01|   -0.871337|
|         632|  1.0560e-01|   -0.978495|
|         633|  1.0563e-01|   -0.824049|
|         634|  1.0563e-01|   -0.920951|
|         635|  1.0564e-01|   -0.932170|
|         636|  1.0563e-01|   -0.879498|
|         637|  1.0563e-01|   -0.942551|
|         638|  1.0563e-01|   -0.692219|
|         639|  1.0563e-01|   -0.920958|
|         640|  1.0563e-01|   -0.772872|
|         641|  1.0563e-01|   -1.015332|
|         642|  1.0562e-01|   -0.780400|
|         643|  1.0562e-01|   -0.979906|
|         644|  1.0562e-01|   -1.058986|
|         645|  1.0563e-01|   -1.086927|
|         646|  1.0563e-01|   -1.006771|
|         647|  1.0564e-01|   -0.999711|
|         648|  1.0565e-01|   -0.929852|
|         649|  1.0565e-01|   -1.017279|
|         650|  1.0565e-01|   -0.908405|
|         651|  1.0565e-01|   -0.991044|
|         652|  1.0565e-01|   -1.067951|
|         653|  1.0566e-01|   -0.984469|
|         654|  1.0565e-01|   -0.877741|
|         655|  1.0564e-01|   -0.887624|
|         656|  1.0563e-01|   -0.764139|
|         657|  1.0563e-01|   -0.965571|
|         658|  1.0565e-01|   -0.966294|
|         659|  1.0565e-01|   -0.915707|
|         660|  1.0566e-01|   -0.876514|
|         661|  1.0566e-01|   -1.004028|
|         662|  1.0565e-01|   -0.963198|
|         663|  1.0565e-01|   -0.961012|
|         664|  1.0564e-01|   -0.816464|
|         665|  1.0563e-01|   -0.933675|
|         666|  1.0563e-01|   -0.941646|
|         667|  1.0562e-01|   -0.874249|
|         668|  1.0561e-01|   -1.027756|
|         669|  1.0560e-01|   -1.028961|
|         670|  1.0560e-01|   -0.854647|
|         671|  1.0559e-01|   -0.948225|
|         672|  1.0559e-01|   -0.693275|
|         673|  1.0558e-01|   -0.826432|
|         674|  1.0558e-01|   -1.038294|
|         675|  1.0557e-01|   -0.880889|
|         676|  1.0558e-01|   -0.802211|
|         677|  1.0557e-01|   -0.829748|
|         678|  1.0556e-01|   -1.007844|
|         679|  1.0555e-01|   -0.935658|
|         680|  1.0555e-01|   -1.030164|
|         681|  1.0555e-01|   -1.018886|
|         682|  1.0555e-01|   -0.990419|
|         683|  1.0555e-01|   -0.943558|
|         684|  1.0555e-01|   -0.908522|
|         685|  1.0554e-01|   -0.907421|
|         686|  1.0553e-01|   -0.823377|
|         687|  1.0553e-01|   -0.929982|
|         688|  1.0552e-01|   -1.066732|
|         689|  1.0552e-01|   -0.809291|
|         690|  1.0551e-01|   -0.968423|
|         691|  1.0551e-01|   -0.920393|
|         692|  1.0551e-01|   -0.952913|
|         693|  1.0551e-01|   -0.936088|
|         694|  1.0552e-01|   -0.881717|
|         695|  1.0553e-01|   -0.861626|
|         696|  1.0555e-01|   -0.888125|
|         697|  1.0558e-01|   -0.948402|
|         698|  1.0559e-01|   -0.914784|
|         699|  1.0562e-01|   -0.973304|
|         700|  1.0563e-01|   -0.708471|
+-----------------------------------------------------------------------+
|        File Writing Summary       |              Filename             |
+-----------------------------------------------------------------------+
|SU2 restart                        |flo.dat                            |
|Paraview binary                    |flow.vtk                           |
|Paraview binary surface            |surface_flow.vtk                   |
+-----------------------------------------------------------------------+
+--------------------------------------+
|  Inner_Iter|   Time(sec)|    rms[Rho]|
+--------------------------------------+
|         701|  1.0565e-01|   -0.893930|
|         702|  1.0565e-01|   -0.895690|
|         703|  1.0566e-01|   -0.846542|
|         704|  1.0566e-01|   -0.639092|
|         705|  1.0566e-01|   -0.929585|
|         706|  1.0571e-01|   -0.969583|
|         707|  1.0571e-01|   -0.967532|
|         708|  1.0574e-01|   -0.725352|
|         709|  1.0578e-01|   -0.975537|
|         710|  1.0579e-01|   -1.035971|
|         711|  1.0579e-01|   -0.846305|
|         712|  1.0579e-01|   -0.920449|
|         713|  1.0580e-01|   -0.975023|
|         714|  1.0579e-01|   -0.689904|
|         715|  1.0578e-01|   -0.848795|
|         716|  1.0582e-01|   -1.054562|
|         717|  1.0582e-01|   -0.684109|
|         718|  1.0582e-01|   -1.072036|
|         719|  1.0581e-01|   -0.747148|
|         720|  1.0582e-01|   -1.076617|
|         721|  1.0582e-01|   -0.829400|
|         722|  1.0581e-01|   -0.792932|
|         723|  1.0581e-01|   -0.878223|
|         724|  1.0580e-01|   -1.136034|
|         725|  1.0579e-01|   -1.019684|
|         726|  1.0578e-01|   -1.001287|
|         727|  1.0579e-01|   -0.904069|
|         728|  1.0584e-01|   -0.979358|
|         729|  1.0588e-01|   -0.805986|
|         730|  1.0592e-01|   -0.916031|
|         731|  1.0595e-01|   -0.867712|
|         732|  1.0596e-01|   -1.106926|
|         733|  1.0596e-01|   -0.908874|
|         734|  1.0595e-01|   -1.119668|
|         735|  1.0595e-01|   -0.827958|
|         736|  1.0594e-01|   -1.038952|
|         737|  1.0598e-01|   -0.898432|
|         738|  1.0602e-01|   -0.845716|
|         739|  1.0602e-01|   -0.893671|
|         740|  1.0603e-01|   -0.992776|
|         741|  1.0604e-01|   -0.847320|
|         742|  1.0603e-01|   -1.036688|
|         743|  1.0603e-01|   -0.770746|
|         744|  1.0602e-01|   -0.979229|
|         745|  1.0602e-01|   -0.952764|
|         746|  1.0601e-01|   -0.999828|
|         747|  1.0601e-01|   -0.770000|
|         748|  1.0600e-01|   -1.015188|
|         749|  1.0599e-01|   -0.850300|
|         750|  1.0598e-01|   -1.041455|
|         751|  1.0598e-01|   -0.765035|
|         752|  1.0597e-01|   -1.013956|
|         753|  1.0596e-01|   -0.931374|
|         754|  1.0595e-01|   -0.820671|
|         755|  1.0595e-01|   -0.770057|
|         756|  1.0594e-01|   -0.967814|
|         757|  1.0594e-01|   -1.003969|
|         758|  1.0593e-01|   -1.072729|
|         759|  1.0592e-01|   -0.865988|
|         760|  1.0591e-01|   -0.909798|
|         761|  1.0591e-01|   -0.889683|
|         762|  1.0591e-01|   -1.059176|
|         763|  1.0591e-01|   -0.840695|
|         764|  1.0591e-01|   -0.999261|
|         765|  1.0590e-01|   -0.950982|
|         766|  1.0591e-01|   -1.093108|
|         767|  1.0591e-01|   -0.754989|
|         768|  1.0592e-01|   -1.071469|
|         769|  1.0592e-01|   -0.844438|
|         770|  1.0591e-01|   -1.121815|
|         771|  1.0591e-01|   -0.773519|
|         772|  1.0590e-01|   -1.095667|
|         773|  1.0589e-01|   -0.867206|
|         774|  1.0588e-01|   -1.026966|
|         775|  1.0588e-01|   -0.870191|
|         776|  1.0587e-01|   -1.027920|
|         777|  1.0587e-01|   -0.581613|
|         778|  1.0586e-01|   -1.012112|
|         779|  1.0585e-01|   -0.860647|
|         780|  1.0586e-01|   -0.857791|
|         781|  1.0588e-01|   -0.617453|
|         782|  1.0588e-01|   -1.073811|
|         783|  1.0587e-01|   -0.865031|
|         784|  1.0586e-01|   -0.971856|
|         785|  1.0587e-01|   -0.943955|
|         786|  1.0588e-01|   -0.703113|
|         787|  1.0587e-01|   -0.903377|
|         788|  1.0587e-01|   -1.061216|
|         789|  1.0586e-01|   -0.937025|
|         790|  1.0585e-01|   -1.109853|
|         791|  1.0585e-01|   -0.808127|
|         792|  1.0584e-01|   -1.064664|
|         793|  1.0584e-01|   -0.756357|
|         794|  1.0583e-01|   -0.930897|
|         795|  1.0582e-01|   -0.784098|
|         796|  1.0582e-01|   -0.997489|
|         797|  1.0582e-01|   -0.733729|
|         798|  1.0581e-01|   -1.012611|
|         799|  1.0581e-01|   -0.751562|
|         800|  1.0581e-01|   -0.843047|
+-----------------------------------------------------------------------+
|        File Writing Summary       |              Filename             |
+-----------------------------------------------------------------------+
|SU2 restart                        |flo.dat                            |
|Paraview binary                    |flow.vtk                           |
|Paraview binary surface            |surface_flow.vtk                   |
+-----------------------------------------------------------------------+
+--------------------------------------+
|  Inner_Iter|   Time(sec)|    rms[Rho]|
+--------------------------------------+
|         801|  1.0583e-01|   -0.942158|
|         802|  1.0582e-01|   -1.172918|
|         803|  1.0581e-01|   -0.862926|
|         804|  1.0581e-01|   -1.118963|
|         805|  1.0584e-01|   -0.816506|
|         806|  1.0584e-01|   -0.947751|
|         807|  1.0586e-01|   -0.821069|
|         808|  1.0588e-01|   -1.110196|
|         809|  1.0588e-01|   -0.743763|
|         810|  1.0588e-01|   -0.765182|
|         811|  1.0587e-01|   -0.821432|
|         812|  1.0586e-01|   -1.048907|
|         813|  1.0587e-01|   -0.918431|
|         814|  1.0589e-01|   -0.841799|
|         815|  1.0591e-01|   -0.798871|
|         816|  1.0592e-01|   -1.048767|
|         817|  1.0592e-01|   -0.932761|
|         818|  1.0595e-01|   -0.936058|
|         819|  1.0595e-01|   -0.934500|
|         820|  1.0596e-01|   -0.875757|
|         821|  1.0597e-01|   -0.988241|
|         822|  1.0597e-01|   -1.089585|
|         823|  1.0597e-01|   -0.930001|
|         824|  1.0597e-01|   -0.828690|
|         825|  1.0596e-01|   -0.924825|
|         826|  1.0596e-01|   -1.103191|
|         827|  1.0596e-01|   -0.825251|
|         828|  1.0596e-01|   -1.048809|
|         829|  1.0598e-01|   -0.843102|
|         830|  1.0599e-01|   -0.863617|
|         831|  1.0598e-01|   -0.780191|
|         832|  1.0597e-01|   -1.116383|
|         833|  1.0597e-01|   -0.735966|
|         834|  1.0600e-01|   -1.083407|
|         835|  1.0600e-01|   -0.850150|
|         836|  1.0600e-01|   -1.104461|
|         837|  1.0602e-01|   -0.807061|
|         838|  1.0606e-01|   -0.948193|
|         839|  1.0610e-01|   -0.909264|
|         840|  1.0610e-01|   -1.072322|
|         841|  1.0610e-01|   -0.803095|
|         842|  1.0609e-01|   -1.137651|
|         843|  1.0609e-01|   -0.786265|
|         844|  1.0610e-01|   -1.139889|
|         845|  1.0613e-01|   -0.892748|
|         846|  1.0616e-01|   -1.079960|
|         847|  1.0616e-01|   -0.759720|
|         848|  1.0616e-01|   -1.120698|
|         849|  1.0615e-01|   -0.904993|
|         850|  1.0615e-01|   -1.168987|
|         851|  1.0614e-01|   -0.824857|
|         852|  1.0615e-01|   -1.134546|
|         853|  1.0618e-01|   -0.782094|
|         854|  1.0621e-01|   -1.105392|
|         855|  1.0622e-01|   -0.663219|
|         856|  1.0621e-01|   -1.111359|
|         857|  1.0621e-01|   -0.840316|
|         858|  1.0623e-01|   -0.831125|
|         859|  1.0627e-01|   -0.914829|
|         860|  1.0631e-01|   -1.130285|
|         861|  1.0633e-01|   -0.918930|
|         862|  1.0633e-01|   -1.070586|
|         863|  1.0633e-01|   -0.734669|
|         864|  1.0633e-01|   -1.105698|
|         865|  1.0633e-01|   -0.895662|
|         866|  1.0633e-01|   -1.085541|
|         867|  1.0632e-01|   -0.688172|
|         868|  1.0632e-01|   -0.985661|
|         869|  1.0632e-01|   -0.931845|
|         870|  1.0632e-01|   -0.657608|
|         871|  1.0633e-01|   -0.767144|
|         872|  1.0632e-01|   -1.073470|
|         873|  1.0632e-01|   -0.902330|
|         874|  1.0632e-01|   -0.921847|
|         875|  1.0631e-01|   -0.799841|
|         876|  1.0631e-01|   -1.107113|
|         877|  1.0631e-01|   -0.862753|
|         878|  1.0631e-01|   -1.108834|
|         879|  1.0631e-01|   -0.818695|
|         880|  1.0632e-01|   -1.101961|
|         881|  1.0632e-01|   -0.757918|
|         882|  1.0632e-01|   -1.083991|
|         883|  1.0632e-01|   -0.777812|
|         884|  1.0637e-01|   -1.100532|
|         885|  1.0642e-01|   -0.677944|
|         886|  1.0644e-01|   -1.071925|
|         887|  1.0644e-01|   -0.842801|
|         888|  1.0643e-01|   -1.095399|
|         889|  1.0643e-01|   -0.847563|
|         890|  1.0646e-01|   -1.029780|
|         891|  1.0649e-01|   -0.838672|
|         892|  1.0650e-01|   -0.686514|
|         893|  1.0651e-01|   -0.825434|
|         894|  1.0651e-01|   -1.065297|
|         895|  1.0651e-01|   -0.774840|
|         896|  1.0650e-01|   -1.070383|
|         897|  1.0649e-01|   -0.721558|
|         898|  1.0649e-01|   -1.077529|
|         899|  1.0648e-01|   -0.853156|
|         900|  1.0647e-01|   -1.021267|
+-----------------------------------------------------------------------+
|        File Writing Summary       |              Filename             |
+-----------------------------------------------------------------------+
|SU2 restart                        |flo.dat                            |
|Paraview binary                    |flow.vtk                           |
|Paraview binary surface            |surface_flow.vtk                   |
+-----------------------------------------------------------------------+
+--------------------------------------+
|  Inner_Iter|   Time(sec)|    rms[Rho]|
+--------------------------------------+
|         901|  1.0649e-01|   -0.895733|
|         902|  1.0648e-01|   -0.978602|
|         903|  1.0648e-01|   -0.883203|
|         904|  1.0647e-01|   -0.873900|
|         905|  1.0647e-01|   -0.864630|
|         906|  1.0646e-01|   -1.025464|
|         907|  1.0645e-01|   -0.896786|
|         908|  1.0645e-01|   -0.777295|
|         909|  1.0645e-01|   -0.861143|
|         910|  1.0645e-01|   -1.064007|
|         911|  1.0645e-01|   -0.861321|
|         912|  1.0645e-01|   -1.011457|
|         913|  1.0645e-01|   -0.996344|
|         914|  1.0646e-01|   -0.904499|
|         915|  1.0647e-01|   -0.932007|
|         916|  1.0646e-01|   -0.904960|
|         917|  1.0646e-01|   -0.963953|
|         918|  1.0645e-01|   -0.770360|
|         919|  1.0644e-01|   -0.923718|
|         920|  1.0644e-01|   -1.053690|
|         921|  1.0643e-01|   -0.945550|
|         922|  1.0644e-01|   -0.984677|
|         923|  1.0647e-01|   -0.869645|
|         924|  1.0651e-01|   -0.834413|
|         925|  1.0656e-01|   -0.959681|
|         926|  1.0659e-01|   -0.858135|
|         927|  1.0662e-01|   -0.923555|
|         928|  1.0662e-01|   -0.891439|
|         929|  1.0662e-01|   -0.957377|
|         930|  1.0661e-01|   -0.872499|
|         931|  1.0661e-01|   -0.862786|
|         932|  1.0661e-01|   -1.012602|
|         933|  1.0661e-01|   -0.938151|
|         934|  1.0664e-01|   -0.961654|
|         935|  1.0664e-01|   -0.793713|
|         936|  1.0663e-01|   -1.023524|
|         937|  1.0663e-01|   -0.882335|
|         938|  1.0663e-01|   -0.909313|
|         939|  1.0663e-01|   -0.934523|
|         940|  1.0663e-01|   -0.988521|
|         941|  1.0663e-01|   -0.901662|
|         942|  1.0662e-01|   -0.957289|
|         943|  1.0662e-01|   -0.892609|
|         944|  1.0662e-01|   -1.048828|
|         945|  1.0662e-01|   -0.918226|
|         946|  1.0662e-01|   -1.094453|
|         947|  1.0662e-01|   -0.887106|
|         948|  1.0662e-01|   -0.885397|
|         949|  1.0662e-01|   -0.896964|
|         950|  1.0662e-01|   -1.102684|
|         951|  1.0661e-01|   -0.860384|
|         952|  1.0661e-01|   -1.097574|
|         953|  1.0661e-01|   -0.853164|
|         954|  1.0661e-01|   -1.087804|
|         955|  1.0660e-01|   -0.828020|
|         956|  1.0660e-01|   -1.069186|
|         957|  1.0659e-01|   -0.784555|
|         958|  1.0658e-01|   -1.020584|
|         959|  1.0658e-01|   -0.825062|
|         960|  1.0657e-01|   -0.956016|
|         961|  1.0657e-01|   -0.933758|
|         962|  1.0657e-01|   -1.086165|
|         963|  1.0656e-01|   -0.882889|
|         964|  1.0657e-01|   -0.932037|
|         965|  1.0656e-01|   -0.859346|
|         966|  1.0655e-01|   -1.094145|
|         967|  1.0655e-01|   -0.815592|
|         968|  1.0654e-01|   -1.088131|
|         969|  1.0654e-01|   -0.864208|
|         970|  1.0655e-01|   -1.027598|
|         971|  1.0654e-01|   -0.844714|
|         972|  1.0653e-01|   -1.086362|
|         973|  1.0653e-01|   -0.662562|
|         974|  1.0653e-01|   -1.038863|
|         975|  1.0652e-01|   -0.676289|
|         976|  1.0652e-01|   -1.070181|
|         977|  1.0652e-01|   -0.924732|
|         978|  1.0652e-01|   -1.108941|
|         979|  1.0652e-01|   -0.629277|
|         980|  1.0651e-01|   -1.074277|
|         981|  1.0651e-01|   -0.769307|
|         982|  1.0650e-01|   -0.997062|
|         983|  1.0650e-01|   -0.930016|
|         984|  1.0649e-01|   -0.845320|
|         985|  1.0649e-01|   -0.908069|
|         986|  1.0648e-01|   -1.083645|
|         987|  1.0647e-01|   -0.857348|
|         988|  1.0647e-01|   -0.810491|
|         989|  1.0647e-01|   -0.873801|
|         990|  1.0646e-01|   -1.024117|
|         991|  1.0646e-01|   -0.882250|
|         992|  1.0645e-01|   -0.912612|
|         993|  1.0645e-01|   -0.956377|
|         994|  1.0644e-01|   -0.776330|
|         995|  1.0643e-01|   -0.888095|
|         996|  1.0643e-01|   -1.020944|
|         997|  1.0642e-01|   -0.940397|
|         998|  1.0642e-01|   -1.067345|
|         999|  1.0642e-01|   -0.791132|

----------------------------- Solver Exit -------------------------------

Maximum number of iterations reached (ITER = 1000) before convergence.
+-----------------------------------------------------------------------+
|      Convergence Field     |     Value    |   Criterion  |  Converged |
+-----------------------------------------------------------------------+
|                    rms[Rho]|     -0.791132|         < -11|          No|
+-----------------------------------------------------------------------+
-------------------------------------------------------------------------
+-----------------------------------------------------------------------+
|        File Writing Summary       |              Filename             |
+-----------------------------------------------------------------------+
|SU2 restart                        |flo.dat                            |
|Paraview binary                    |flow.vtk                           |
|Paraview binary surface            |surface_flow.vtk                   |
+-----------------------------------------------------------------------+

------------------------- Solver Postprocessing -------------------------
Deleted CNumerics container.
Deleted CIntegration container.
Deleted CSolver container.
Deleted CIteration container.
Deleted CInterpolator container.
Deleted CInterface container.
Deleted CGeometry container.
Deleted CFreeFormDefBox class.
Deleted CSurfaceMovement class.
Deleted CVolumetricMovement class.
Deleted CConfig container.
Deleted nInst container.
Deleted COutput class.
-------------------------------------------------------------------------

------------------------- Exit Success (SU2_CFD) ------------------------

