
-------------------------------------------------------------------------
|    ___ _   _ ___                                                      |
|   / __| | | |_  )   Release 7.0.3 "Blackbird"                         |
|   \__ \ |_| |/ /                                                      |
|   |___/\___//___|   Suite (Computational Fluid Dynamics Code)         |
|                                                                       |
-------------------------------------------------------------------------
| SU2 Project Website: https://su2code.github.io                        |
|                                                                       |
| The SU2 Project is maintained by the SU2 Foundation                   |
| (http://su2foundation.org)                                            |
-------------------------------------------------------------------------
| Copyright 2012-2020, SU2 Contributors                                 |
|                                                                       |
| SU2 is free software; you can redistribute it and/or                  |
| modify it under the terms of the GNU Lesser General Public            |
| License as published by the Free Software Foundation; either          |
| version 2.1 of the License, or (at your option) any later version.    |
|                                                                       |
| SU2 is distributed in the hope that it will be useful,                |
| but WITHOUT ANY WARRANTY; without even the implied warranty of        |
| MERCHANTABILITY or FITNESS FOR A PARTICULAR PURPOSE. See the GNU      |
| Lesser General Public License for more details.                       |
|                                                                       |
| You should have received a copy of the GNU Lesser General Public      |
| License along with SU2. If not, see <http://www.gnu.org/licenses/>.   |
-------------------------------------------------------------------------

Parsing config file for zone 0

----------------- Physical Case Definition ( Zone 0 ) -------------------
Compressible Euler equations.
Mach number: 1.7.
Angle of attack (AoA): 0 deg, and angle of sideslip (AoS): 0 deg.
Reading and writing binary SU2 native restart files.
Read flow solution from: flo_ini.dat.
Dimensional simulation.
The reference area is 1 m^2.
The semi-span will be computed using the max y(3D) value.
The reference length is 1 m.
Input mesh file name: adap.su2

--------------- Space Numerical Integration ( Zone 0 ) ------------------
Roe (with entropy fix = 0.001) solver for the flow inviscid terms.
Standard Roe without low-dissipation function.
Second order integration in space, with slope limiter.
Venkatakrishnan slope-limiting method, with constant: 0.001. 
The reference element size is: 1. 
Gradient for upwind reconstruction: inverse-distance weighted Least-Squares.
Gradient for viscous and source terms: inverse-distance weighted Least-Squares.

--------------- Time Numerical Integration  ( Zone 0 ) ------------------
Local time stepping (steady state simulation).
Euler implicit method for the flow equations.
FGMRES is used for solving the linear system.
Using a ILU(0) preconditioning.
Convergence criteria of the linear solver: 1e-06.
Max number of linear iterations: 20.
CFL adaptation. Factor down: 0.1, factor up: 2,
                lower limit: 0.1, upper limit: 100.
Courant-Friedrichs-Lewy number:      0.1

------------------ Convergence Criteria  ( Zone 0 ) ---------------------
Maximum number of solver subiterations: 999.
Begin convergence monitoring at iteration 10.
Residual minimum value: 1e-11.
Cauchy series min. value: 1e-10.
Number of Cauchy elements: 100.
Begin windowed time average at iteration 0.

-------------------- Output Information ( Zone 0 ) ----------------------
Writing solution files every 100 iterations.
Writing the convergence history file every 1 inner iterations.
Writing the screen convergence history every 1 inner iterations.
The tabular file format is CSV (.csv).
Convergence history file name: history.
Forces breakdown file name: forces_breakdown.dat.
Surface file name: surface_flow.
Volume file name: flow.
Restart file name: flo.dat.

------------- Config File Boundary Information ( Zone 0 ) ---------------
+-----------------------------------------------------------------------+
|                        Marker Type|                        Marker Name|
+-----------------------------------------------------------------------+
|                         Euler wall|                                  4|
|                                   |                                  5|
+-----------------------------------------------------------------------+
|                     Symmetry plane|                                  2|
+-----------------------------------------------------------------------+
|                   Riemann boundary|                                  1|
|                                   |                                  3|
+-----------------------------------------------------------------------+

-------------------- Output Preprocessing ( Zone 0 ) --------------------
Screen output fields: INNER_ITER, WALL_TIME, RMS_DENSITY
History output group(s): ITER, RMS_RES, AERO_COEFF, FLOW_COEFF
Convergence field(s): RMS_DENSITY
Warning: No (valid) fields chosen for time convergence monitoring. Time convergence monitoring inactive.
Volume output fields: COORDINATES, SOLUTION, PRIMITIVE

------------------- Geometry Preprocessing ( Zone 0 ) -------------------
Two dimensional problem.
26049 grid points before partitioning.
51560 volume elements before partitioning.
5 surface markers.
43 boundary elements in index 0 (Marker = 1).
55 boundary elements in index 1 (Marker = 2).
271 boundary elements in index 2 (Marker = 3).
100 boundary elements in index 3 (Marker = 4).
67 boundary elements in index 4 (Marker = 5).
Executing the partitioning functions.
Building the graph adjacency structure.
Calling ParMETIS... graph partitioning complete (744 edge cuts).
Distributing ParMETIS coloring.
Rebalancing vertices.
Rebalancing volume element connectivity.
Rebalancing markers and surface elements.
26798 vertices including ghost points. 
52303 interior elements including halo cells. 
52303 triangles.
Establishing MPI communication patterns.
Setting point connectivity.
Renumbering points (Reverse Cuthill McKee Ordering).
Recomputing point connectivity.
Setting element connectivity.
Checking the numerical grid orientation.
There has been a re-orientation of the LINE surface elements.
Identifying edges and vertices.
Computing centers of gravity.
Setting the control volume structure.
Area of the computational grid: 0.870916.
Searching for the closest normal neighbors to the surfaces.
Storing a mapping from global to local point index.
Compute the surface curvature.
Max K: 111.42. Mean K: 6.9767. Standard deviation K: 21.4558.
Checking for periodicity.
Computing mesh quality statistics for the dual control volumes.
+--------------------------------------------------------------+
|           Mesh Quality Metric|        Minimum|        Maximum|
+--------------------------------------------------------------+
|    Orthogonality Angle (deg.)|       0.975381|        89.2986|
|     CV Face Area Aspect Ratio|        1.00836|        108.528|
|           CV Sub-Volume Ratio|              1|         8.0707|
+--------------------------------------------------------------+
Finding max control volume width.
Communicating number of neighbors.
Wetted area = 0 m.
Area projection in the x-plane = 0 m, y-plane = 0 m.
Max. coordinate in the x-direction = -1e+10 m, y-direction = -1e+10 m.
Min. coordinate in the x-direction = 1e+10 m, y-direction = 1e+10 m.
Checking if Euler & Symmetry markers are straight/plane:
Boundary marker 4 is NOT a single straight.
Boundary marker 5 is NOT a single straight.
Boundary marker 2 is a single straight.
Computing wall distances.

-------------------- Solver Preprocessing ( Zone 0 ) --------------------
Inviscid flow: Computing density based on free-stream
temperature and pressure using the ideal gas law.
Force coefficients computed using free-stream values.

-- Models:
+------------------------------------------------------------------------------+
|          Viscosity Model|        Conductivity Model|              Fluid Model|
+------------------------------------------------------------------------------+
|                        -|                         -|                   PR_GAS|
+------------------------------------------------------------------------------+
-- Fluid properties:
+------------------------------------------------------------------------------+
|                  Name|    Dim. value|    Ref. value|      Unit|Non-dim. value|
+------------------------------------------------------------------------------+
|          Gas Constant|        35.152|             1|  N.m/kg.K|        35.152|
|      Spec. Heat Ratio|             -|             -|         -|        1.0125|
|     Critical Pressure|     1.415e+06|             1|          |     1.415e+06|
|  Critical Temperature|        564.09|             1|         K|        564.09|
+------------------------------------------------------------------------------+
-- Initial and free-stream conditions:
+------------------------------------------------------------------------------+
|                  Name|    Dim. value|    Ref. value|      Unit|Non-dim. value|
+------------------------------------------------------------------------------+
|       Static Pressure|    1.4999e+06|             1|        Pa|    1.4999e+06|
|               Density|         202.8|             1|    kg/m^3|         202.8|
|           Temperature|       569.369|             1|         K|       569.369|
|          Total Energy|   1.55887e+06|             1|   m^2/s^2|   1.55887e+06|
|            Velocity-X|       80.4119|             1|       m/s|       80.4119|
|            Velocity-Y|             0|             1|       m/s|             0|
|    Velocity Magnitude|       80.4119|             1|       m/s|       80.4119|
+------------------------------------------------------------------------------+
|           Mach Number|             -|             -|         -|           1.7|
+------------------------------------------------------------------------------+
Initialize Jacobian structure (Euler). MG level: 0.

------------------- Numerics Preprocessing ( Zone 0 ) -------------------

----------------- Integration Preprocessing ( Zone 0 ) ------------------

------------------- Iteration Preprocessing ( Zone 0 ) ------------------
Euler/Navier-Stokes/RANS fluid iteration.

------------------------------ Begin Solver -----------------------------

Simulation Run using the Single-zone Driver
+--------------------------------------+
|  Inner_Iter|   Time(sec)|    rms[Rho]|
+--------------------------------------+
|           0|  5.3608e-02|   -2.428980|
|           1|  5.2610e-02|   -2.443255|
|           2|  5.3366e-02|   -2.469730|
|           3|  5.3866e-02|   -2.523066|
|           4|  5.5025e-02|   -2.595657|
|           5|  5.8818e-02|   -2.674635|
|           6|  6.3354e-02|   -2.766838|
|           7|  6.9353e-02|   -2.875179|
|           8|  8.6515e-02|   -2.974365|
|           9|  9.2535e-02|   -3.044517|
|          10|  9.6234e-02|   -3.091830|
|          11|  9.9211e-02|   -3.118567|
|          12|  1.0161e-01|   -3.121729|
|          13|  1.0378e-01|   -3.133222|
|          14|  1.0566e-01|   -3.157142|
|          15|  1.0788e-01|   -3.194188|
|          16|  1.1012e-01|   -3.215753|
|          17|  1.1243e-01|   -3.227706|
|          18|  1.1362e-01|   -3.238267|
|          19|  1.1463e-01|   -3.245697|
|          20|  1.1610e-01|   -3.241556|
|          21|  1.1803e-01|   -3.240599|
|          22|  1.2002e-01|   -3.240850|
|          23|  1.2228e-01|   -3.236691|
|          24|  1.2661e-01|   -3.190438|
|          25|  1.2854e-01|   -3.149642|
|          26|  1.3089e-01|   -3.179374|
|          27|  1.3312e-01|   -3.188947|
|          28|  1.3341e-01|   -3.207737|
|          29|  1.3371e-01|   -3.165545|
|          30|  1.3392e-01|   -3.075931|
|          31|  1.3399e-01|   -3.004924|
|          32|  1.3413e-01|   -3.027476|
|          33|  1.3424e-01|   -2.995996|
|          34|  1.3430e-01|   -2.965003|
|          35|  1.3456e-01|   -2.929122|
|          36|  1.3460e-01|   -2.935665|
|          37|  1.3458e-01|   -2.920084|
|          38|  1.3464e-01|   -2.926822|
|          39|  1.3470e-01|   -2.825825|
|          40|  1.3478e-01|   -2.748021|
|          41|  1.3483e-01|   -2.820864|
|          42|  1.3487e-01|   -2.860998|
|          43|  1.3490e-01|   -2.857542|
|          44|  1.3501e-01|   -2.829616|
|          45|  1.3611e-01|   -2.804981|
|          46|  1.3612e-01|   -2.813792|
|          47|  1.3612e-01|   -2.828677|
|          48|  1.3609e-01|   -2.825041|
|          49|  1.3605e-01|   -2.818638|
|          50|  1.3600e-01|   -2.812721|
|          51|  1.3598e-01|   -2.796593|
|          52|  1.3597e-01|   -2.734279|
|          53|  1.3594e-01|   -2.792308|
|          54|  1.3590e-01|   -2.770546|
|          55|  1.3586e-01|   -2.774569|
|          56|  1.3585e-01|   -2.776623|
|          57|  1.3584e-01|   -2.770102|
|          58|  1.3580e-01|   -2.740909|
|          59|  1.3576e-01|   -2.706654|
|          60|  1.3573e-01|   -2.717641|
|          61|  1.3572e-01|   -2.757717|
|          62|  1.3570e-01|   -2.747281|
|          63|  1.3638e-01|   -2.756422|
|          64|  1.3736e-01|   -2.733725|
|          65|  1.3849e-01|   -2.759881|
|          66|  1.3991e-01|   -2.779398|
|          67|  1.3992e-01|   -2.774597|
|          68|  1.3984e-01|   -2.814885|
|          69|  1.3996e-01|   -2.845241|
|          70|  1.4082e-01|   -2.875205|
|          71|  1.4098e-01|   -2.913354|
|          72|  1.4089e-01|   -2.953379|
|          73|  1.4082e-01|   -2.962927|
|          74|  1.4074e-01|   -2.977409|
|          75|  1.4064e-01|   -2.996118|
|          76|  1.4055e-01|   -3.023529|
|          77|  1.4046e-01|   -3.040180|
|          78|  1.4038e-01|   -3.069385|
|          79|  1.4032e-01|   -3.085341|
|          80|  1.4024e-01|   -3.085842|
|          81|  1.4016e-01|   -3.087555|
|          82|  1.4008e-01|   -3.098005|
|          83|  1.4000e-01|   -3.085158|
|          84|  1.3995e-01|   -3.063637|
|          85|  1.4012e-01|   -3.051980|
|          86|  1.4110e-01|   -3.043507|
|          87|  1.4183e-01|   -3.015252|
|          88|  1.4192e-01|   -3.002145|
|          89|  1.4193e-01|   -2.987033|
|          90|  1.4200e-01|   -2.972067|
|          91|  1.4191e-01|   -2.937339|
|          92|  1.4182e-01|   -2.899756|
|          93|  1.4175e-01|   -2.835756|
|          94|  1.4169e-01|   -2.796361|
|          95|  1.4161e-01|   -2.745346|
|          96|  1.4155e-01|   -2.722621|
|          97|  1.4190e-01|   -2.675224|
|          98|  1.4273e-01|   -2.652150|
|          99|  1.4361e-01|   -2.603566|
|         100|  1.4431e-01|   -2.568363|
+-----------------------------------------------------------------------+
|        File Writing Summary       |              Filename             |
+-----------------------------------------------------------------------+
|SU2 restart                        |flo.dat                            |
|Paraview binary                    |flow.vtk                           |
|Paraview binary surface            |surface_flow.vtk                   |
+-----------------------------------------------------------------------+
+--------------------------------------+
|  Inner_Iter|   Time(sec)|    rms[Rho]|
+--------------------------------------+
|         101|  1.4478e-01|   -2.539404|
|         102|  1.4512e-01|   -2.526750|
|         103|  1.4511e-01|   -2.557564|
|         104|  1.4502e-01|   -2.638217|
|         105|  1.4492e-01|   -2.699301|
|         106|  1.4502e-01|   -2.785712|
|         107|  1.4524e-01|   -2.883321|
|         108|  1.4521e-01|   -2.921752|
|         109|  1.4510e-01|   -2.937010|
|         110|  1.4499e-01|   -2.932134|
|         111|  1.4490e-01|   -2.936964|
|         112|  1.4480e-01|   -2.934397|
|         113|  1.4471e-01|   -2.929115|
|         114|  1.4462e-01|   -2.926089|
|         115|  1.4452e-01|   -2.922484|
|         116|  1.4442e-01|   -2.920615|
|         117|  1.4433e-01|   -2.922854|
|         118|  1.4424e-01|   -2.923287|
|         119|  1.4415e-01|   -2.925174|
|         120|  1.4407e-01|   -2.922844|
|         121|  1.4399e-01|   -2.920690|
|         122|  1.4408e-01|   -2.919971|
|         123|  1.4466e-01|   -2.919016|
|         124|  1.4534e-01|   -2.918579|
|         125|  1.4600e-01|   -2.919527|
|         126|  1.4652e-01|   -2.919806|
|         127|  1.4678e-01|   -2.918397|
|         128|  1.4705e-01|   -2.917392|
|         129|  1.4733e-01|   -2.915513|
|         130|  1.4758e-01|   -2.914522|
|         131|  1.4790e-01|   -2.910485|
|         132|  1.4801e-01|   -2.910834|
|         133|  1.4792e-01|   -2.908364|
|         134|  1.4827e-01|   -2.905640|
|         135|  1.4875e-01|   -2.903769|
|         136|  1.4916e-01|   -2.902739|
|         137|  1.4927e-01|   -2.897567|
|         138|  1.4930e-01|   -2.895986|
|         139|  1.4920e-01|   -2.891720|
|         140|  1.4909e-01|   -2.889673|
|         141|  1.4933e-01|   -2.885138|
|         142|  1.4934e-01|   -2.882112|
|         143|  1.4927e-01|   -2.878494|
|         144|  1.4919e-01|   -2.875810|
|         145|  1.4909e-01|   -2.870763|
|         146|  1.4904e-01|   -2.866067|
|         147|  1.4913e-01|   -2.861010|
|         148|  1.4927e-01|   -2.854363|
|         149|  1.4975e-01|   -2.842287|
|         150|  1.4982e-01|   -2.828344|
|         151|  1.4978e-01|   -2.806462|
|         152|  1.4979e-01|   -2.783544|
|         153|  1.4973e-01|   -2.750189|
|         154|  1.4982e-01|   -2.716751|
|         155|  1.5001e-01|   -2.676361|
|         156|  1.5018e-01|   -2.639397|
|         157|  1.5012e-01|   -2.598097|
|         158|  1.5008e-01|   -2.560762|
|         159|  1.5009e-01|   -2.524680|
|         160|  1.5044e-01|   -2.491287|
|         161|  1.5067e-01|   -2.468352|
|         162|  1.5084e-01|   -2.461641|
|         163|  1.5101e-01|   -2.456486|
|         164|  1.5099e-01|   -2.453201|
|         165|  1.5090e-01|   -2.420276|
|         166|  1.5097e-01|   -2.382804|
|         167|  1.5090e-01|   -2.359287|
|         168|  1.5081e-01|   -2.370875|
|         169|  1.5072e-01|   -2.395039|
|         170|  1.5089e-01|   -2.430657|
|         171|  1.5102e-01|   -2.478499|
|         172|  1.5097e-01|   -2.530163|
|         173|  1.5089e-01|   -2.584340|
|         174|  1.5086e-01|   -2.627582|
|         175|  1.5123e-01|   -2.659548|
|         176|  1.5132e-01|   -2.674177|
|         177|  1.5145e-01|   -2.675862|
|         178|  1.5202e-01|   -2.663995|
|         179|  1.5203e-01|   -2.650911|
|         180|  1.5211e-01|   -2.639129|
|         181|  1.5225e-01|   -2.629972|
|         182|  1.5221e-01|   -2.614027|
|         183|  1.5215e-01|   -2.597040|
|         184|  1.5267e-01|   -2.583946|
|         185|  1.5267e-01|   -2.575546|
|         186|  1.5297e-01|   -2.567046|
|         187|  1.5294e-01|   -2.567817|
|         188|  1.5288e-01|   -2.572247|
|         189|  1.5283e-01|   -2.583933|
|         190|  1.5276e-01|   -2.594193|
|         191|  1.5269e-01|   -2.608287|
|         192|  1.5262e-01|   -2.620277|
|         193|  1.5255e-01|   -2.634808|
|         194|  1.5248e-01|   -2.645201|
|         195|  1.5301e-01|   -2.652955|
|         196|  1.5302e-01|   -2.655445|
|         197|  1.5337e-01|   -2.653481|
|         198|  1.5335e-01|   -2.650597|
|         199|  1.5329e-01|   -2.649245|
|         200|  1.5365e-01|   -2.650634|
+-----------------------------------------------------------------------+
|        File Writing Summary       |              Filename             |
+-----------------------------------------------------------------------+
|SU2 restart                        |flo.dat                            |
|Paraview binary                    |flow.vtk                           |
|Paraview binary surface            |surface_flow.vtk                   |
+-----------------------------------------------------------------------+
+--------------------------------------+
|  Inner_Iter|   Time(sec)|    rms[Rho]|
+--------------------------------------+
|         201|  1.5373e-01|   -2.651700|
|         202|  1.5368e-01|   -2.651668|
|         203|  1.5361e-01|   -2.649856|
|         204|  1.5352e-01|   -2.647030|
|         205|  1.5344e-01|   -2.643293|
|         206|  1.5335e-01|   -2.638815|
|         207|  1.5326e-01|   -2.633733|
|         208|  1.5317e-01|   -2.628147|
|         209|  1.5308e-01|   -2.622198|
|         210|  1.5299e-01|   -2.615940|
|         211|  1.5291e-01|   -2.609338|
|         212|  1.5283e-01|   -2.602510|
|         213|  1.5274e-01|   -2.595038|
|         214|  1.5266e-01|   -2.587380|
|         215|  1.5257e-01|   -2.579186|
|         216|  1.5249e-01|   -2.570846|
|         217|  1.5240e-01|   -2.562014|
|         218|  1.5232e-01|   -2.552906|
|         219|  1.5223e-01|   -2.543255|
|         220|  1.5215e-01|   -2.533304|
|         221|  1.5207e-01|   -2.522266|
|         222|  1.5199e-01|   -2.509942|
|         223|  1.5192e-01|   -2.494277|
|         224|  1.5184e-01|   -2.480204|
|         225|  1.5182e-01|   -2.467827|
|         226|  1.5183e-01|   -2.462220|
|         227|  1.5199e-01|   -2.459232|
|         228|  1.5244e-01|   -2.455047|
|         229|  1.5269e-01|   -2.447986|
|         230|  1.5295e-01|   -2.439653|
|         231|  1.5318e-01|   -2.430521|
|         232|  1.5338e-01|   -2.422058|
|         233|  1.5335e-01|   -2.414346|
|         234|  1.5328e-01|   -2.407500|
|         235|  1.5321e-01|   -2.400666|
|         236|  1.5325e-01|   -2.394338|
|         237|  1.5319e-01|   -2.388091|
|         238|  1.5312e-01|   -2.382492|
|         239|  1.5305e-01|   -2.377063|
|         240|  1.5297e-01|   -2.372340|
|         241|  1.5290e-01|   -2.367735|
|         242|  1.5282e-01|   -2.363823|
|         243|  1.5275e-01|   -2.359988|
|         244|  1.5267e-01|   -2.357163|
|         245|  1.5260e-01|   -2.354499|
|         246|  1.5253e-01|   -2.353094|
|         247|  1.5247e-01|   -2.351870|
|         248|  1.5240e-01|   -2.351089|
|         249|  1.5234e-01|   -2.350241|
|         250|  1.5231e-01|   -2.349685|
|         251|  1.5228e-01|   -2.349043|
|         252|  1.5222e-01|   -2.348657|
|         253|  1.5229e-01|   -2.348160|
|         254|  1.5225e-01|   -2.347895|
|         255|  1.5219e-01|   -2.347517|
|         256|  1.5217e-01|   -2.347346|
|         257|  1.5214e-01|   -2.347058|
|         258|  1.5208e-01|   -2.346949|
|         259|  1.5202e-01|   -2.346723|
|         260|  1.5198e-01|   -2.346660|
|         261|  1.5191e-01|   -2.346476|
|         262|  1.5184e-01|   -2.346451|
|         263|  1.5177e-01|   -2.346309|
|         264|  1.5171e-01|   -2.346301|
|         265|  1.5167e-01|   -2.346178|
|         266|  1.5162e-01|   -2.346187|
|         267|  1.5156e-01|   -2.346088|
|         268|  1.5150e-01|   -2.346112|
|         269|  1.5146e-01|   -2.346024|
|         270|  1.5139e-01|   -2.346050|
|         271|  1.5134e-01|   -2.345971|
|         272|  1.5128e-01|   -2.345997|
|         273|  1.5123e-01|   -2.345931|
|         274|  1.5119e-01|   -2.345969|
|         275|  1.5114e-01|   -2.345904|
|         276|  1.5108e-01|   -2.345940|
|         277|  1.5103e-01|   -2.345882|
|         278|  1.5103e-01|   -2.345924|
|         279|  1.5101e-01|   -2.345871|
|         280|  1.5096e-01|   -2.345911|
|         281|  1.5103e-01|   -2.345856|
|         282|  1.5101e-01|   -2.345888|
|         283|  1.5096e-01|   -2.345819|
|         284|  1.5103e-01|   -2.345847|
|         285|  1.5099e-01|   -2.345793|
|         286|  1.5094e-01|   -2.345840|
|         287|  1.5095e-01|   -2.345801|
|         288|  1.5103e-01|   -2.345851|
|         289|  1.5098e-01|   -2.345817|
|         290|  1.5101e-01|   -2.345869|
|         291|  1.5100e-01|   -2.345832|
|         292|  1.5100e-01|   -2.345879|
|         293|  1.5099e-01|   -2.345844|
|         294|  1.5099e-01|   -2.345884|
|         295|  1.5098e-01|   -2.345849|
|         296|  1.5095e-01|   -2.345894|
|         297|  1.5093e-01|   -2.345855|
|         298|  1.5089e-01|   -2.345897|
|         299|  1.5085e-01|   -2.345858|
|         300|  1.5081e-01|   -2.345901|
+-----------------------------------------------------------------------+
|        File Writing Summary       |              Filename             |
+-----------------------------------------------------------------------+
|SU2 restart                        |flo.dat                            |
|Paraview binary                    |flow.vtk                           |
|Paraview binary surface            |surface_flow.vtk                   |
+-----------------------------------------------------------------------+
+--------------------------------------+
|  Inner_Iter|   Time(sec)|    rms[Rho]|
+--------------------------------------+
|         301|  1.5082e-01|   -2.345864|
|         302|  1.5079e-01|   -2.345900|
|         303|  1.5076e-01|   -2.345857|
|         304|  1.5072e-01|   -2.345893|
|         305|  1.5067e-01|   -2.345850|
|         306|  1.5062e-01|   -2.345889|
|         307|  1.5058e-01|   -2.345852|
|         308|  1.5059e-01|   -2.345888|
|         309|  1.5073e-01|   -2.345849|
|         310|  1.5087e-01|   -2.345886|
|         311|  1.5103e-01|   -2.345850|
|         312|  1.5117e-01|   -2.345888|
|         313|  1.5132e-01|   -2.345850|
|         314|  1.5148e-01|   -2.345886|
|         315|  1.5162e-01|   -2.345848|
|         316|  1.5178e-01|   -2.345880|
|         317|  1.5194e-01|   -2.345850|
|         318|  1.5203e-01|   -2.345892|
|         319|  1.5207e-01|   -2.345858|
|         320|  1.5206e-01|   -2.345895|
|         321|  1.5208e-01|   -2.345861|
|         322|  1.5214e-01|   -2.345902|
|         323|  1.5220e-01|   -2.345870|
|         324|  1.5230e-01|   -2.345908|
|         325|  1.5226e-01|   -2.345875|
|         326|  1.5226e-01|   -2.345914|
|         327|  1.5221e-01|   -2.345876|
|         328|  1.5217e-01|   -2.345918|
|         329|  1.5212e-01|   -2.345886|
|         330|  1.5209e-01|   -2.345921|
|         331|  1.5209e-01|   -2.345886|
|         332|  1.5222e-01|   -2.345920|
|         333|  1.5237e-01|   -2.345887|
|         334|  1.5247e-01|   -2.345923|
|         335|  1.5262e-01|   -2.345887|
|         336|  1.5270e-01|   -2.345920|
|         337|  1.5280e-01|   -2.345883|
|         338|  1.5281e-01|   -2.345908|
|         339|  1.5277e-01|   -2.345873|
|         340|  1.5278e-01|   -2.345905|
|         341|  1.5273e-01|   -2.345864|
|         342|  1.5268e-01|   -2.345889|
|         343|  1.5263e-01|   -2.345848|
|         344|  1.5259e-01|   -2.345877|
|         345|  1.5253e-01|   -2.345839|
|         346|  1.5248e-01|   -2.345866|
|         347|  1.5243e-01|   -2.345823|
|         348|  1.5238e-01|   -2.345848|
|         349|  1.5234e-01|   -2.345801|
|         350|  1.5229e-01|   -2.345827|
|         351|  1.5224e-01|   -2.345779|
|         352|  1.5219e-01|   -2.345789|
|         353|  1.5215e-01|   -2.345728|
|         354|  1.5210e-01|   -2.345741|
|         355|  1.5205e-01|   -2.345706|
|         356|  1.5203e-01|   -2.345742|
|         357|  1.5205e-01|   -2.345707|
|         358|  1.5203e-01|   -2.345739|
|         359|  1.5199e-01|   -2.345703|
|         360|  1.5198e-01|   -2.345729|
|         361|  1.5196e-01|   -2.345696|
|         362|  1.5193e-01|   -2.345730|
|         363|  1.5193e-01|   -2.345691|
|         364|  1.5193e-01|   -2.345720|
|         365|  1.5190e-01|   -2.345680|
|         366|  1.5185e-01|   -2.345711|
|         367|  1.5191e-01|   -2.345675|
|         368|  1.5197e-01|   -2.345704|
|         369|  1.5201e-01|   -2.345664|
|         370|  1.5205e-01|   -2.345690|
|         371|  1.5202e-01|   -2.345642|
|         372|  1.5199e-01|   -2.345669|
|         373|  1.5195e-01|   -2.345629|
|         374|  1.5191e-01|   -2.345652|
|         375|  1.5196e-01|   -2.345608|
|         376|  1.5196e-01|   -2.345633|
|         377|  1.5214e-01|   -2.345595|
|         378|  1.5220e-01|   -2.345622|
|         379|  1.5224e-01|   -2.345581|
|         380|  1.5222e-01|   -2.345605|
|         381|  1.5218e-01|   -2.345563|
|         382|  1.5214e-01|   -2.345580|
|         383|  1.5210e-01|   -2.345541|
|         384|  1.5205e-01|   -2.345567|
|         385|  1.5201e-01|   -2.345524|
|         386|  1.5196e-01|   -2.345549|
|         387|  1.5191e-01|   -2.345507|
|         388|  1.5186e-01|   -2.345536|
|         389|  1.5182e-01|   -2.345498|
|         390|  1.5182e-01|   -2.345523|
|         391|  1.5184e-01|   -2.345482|
|         392|  1.5181e-01|   -2.345505|
|         393|  1.5177e-01|   -2.345458|
|         394|  1.5178e-01|   -2.345485|
|         395|  1.5178e-01|   -2.345443|
|         396|  1.5175e-01|   -2.345466|
|         397|  1.5171e-01|   -2.345419|
|         398|  1.5167e-01|   -2.345442|
|         399|  1.5162e-01|   -2.345397|
|         400|  1.5158e-01|   -2.345420|
+-----------------------------------------------------------------------+
|        File Writing Summary       |              Filename             |
+-----------------------------------------------------------------------+
|SU2 restart                        |flo.dat                            |
|Paraview binary                    |flow.vtk                           |
|Paraview binary surface            |surface_flow.vtk                   |
+-----------------------------------------------------------------------+
+--------------------------------------+
|  Inner_Iter|   Time(sec)|    rms[Rho]|
+--------------------------------------+
|         401|  1.5158e-01|   -2.345374|
|         402|  1.5161e-01|   -2.345390|
|         403|  1.5158e-01|   -2.345342|
|         404|  1.5178e-01|   -2.345353|
|         405|  1.5178e-01|   -2.345305|
|         406|  1.5176e-01|   -2.345322|
|         407|  1.5176e-01|   -2.345267|
|         408|  1.5175e-01|   -2.345279|
|         409|  1.5173e-01|   -2.345221|
|         410|  1.5175e-01|   -2.345236|
|         411|  1.5174e-01|   -2.345181|
|         412|  1.5170e-01|   -2.345190|
|         413|  1.5168e-01|   -2.345134|
|         414|  1.5174e-01|   -2.345139|
|         415|  1.5176e-01|   -2.345077|
|         416|  1.5173e-01|   -2.345086|
|         417|  1.5169e-01|   -2.345031|
|         418|  1.5165e-01|   -2.345038|
|         419|  1.5161e-01|   -2.344972|
|         420|  1.5158e-01|   -2.344973|
|         421|  1.5155e-01|   -2.344901|
|         422|  1.5151e-01|   -2.344889|
|         423|  1.5148e-01|   -2.344813|
|         424|  1.5144e-01|   -2.344816|
|         425|  1.5142e-01|   -2.344764|
|         426|  1.5139e-01|   -2.344768|
|         427|  1.5139e-01|   -2.344719|
|         428|  1.5149e-01|   -2.344730|
|         429|  1.5146e-01|   -2.344670|
|         430|  1.5142e-01|   -2.344680|
|         431|  1.5139e-01|   -2.344618|
|         432|  1.5137e-01|   -2.344629|
|         433|  1.5133e-01|   -2.344570|
|         434|  1.5129e-01|   -2.344572|
|         435|  1.5126e-01|   -2.344511|
|         436|  1.5123e-01|   -2.344511|
|         437|  1.5120e-01|   -2.344444|
|         438|  1.5119e-01|   -2.344448|
|         439|  1.5126e-01|   -2.344384|
|         440|  1.5139e-01|   -2.344382|
|         441|  1.5151e-01|   -2.344305|
|         442|  1.5165e-01|   -2.344305|
|         443|  1.5177e-01|   -2.344233|
|         444|  1.5184e-01|   -2.344230|
|         445|  1.5186e-01|   -2.344160|
|         446|  1.5184e-01|   -2.344151|
|         447|  1.5181e-01|   -2.344080|
|         448|  1.5177e-01|   -2.344067|
|         449|  1.5173e-01|   -2.343998|
|         450|  1.5171e-01|   -2.343989|
|         451|  1.5167e-01|   -2.343910|
|         452|  1.5163e-01|   -2.343901|
|         453|  1.5160e-01|   -2.343819|
|         454|  1.5159e-01|   -2.343815|
|         455|  1.5155e-01|   -2.343739|
|         456|  1.5151e-01|   -2.343726|
|         457|  1.5147e-01|   -2.343650|
|         458|  1.5145e-01|   -2.343635|
|         459|  1.5142e-01|   -2.343553|
|         460|  1.5141e-01|   -2.343540|
|         461|  1.5142e-01|   -2.343460|
|         462|  1.5144e-01|   -2.343445|
|         463|  1.5140e-01|   -2.343357|
|         464|  1.5137e-01|   -2.343345|
|         465|  1.5133e-01|   -2.343258|
|         466|  1.5129e-01|   -2.343241|
|         467|  1.5126e-01|   -2.343156|
|         468|  1.5122e-01|   -2.343131|
|         469|  1.5120e-01|   -2.343044|
|         470|  1.5125e-01|   -2.343011|
|         471|  1.5132e-01|   -2.342923|
|         472|  1.5139e-01|   -2.342897|
|         473|  1.5146e-01|   -2.342798|
|         474|  1.5158e-01|   -2.342768|
|         475|  1.5156e-01|   -2.342662|
|         476|  1.5153e-01|   -2.342633|
|         477|  1.5149e-01|   -2.342530|
|         478|  1.5147e-01|   -2.342491|
|         479|  1.5144e-01|   -2.342385|
|         480|  1.5140e-01|   -2.342339|
|         481|  1.5137e-01|   -2.342224|
|         482|  1.5133e-01|   -2.342179|
|         483|  1.5129e-01|   -2.342067|
|         484|  1.5126e-01|   -2.342019|
|         485|  1.5122e-01|   -2.341893|
|         486|  1.5118e-01|   -2.341843|
|         487|  1.5115e-01|   -2.341718|
|         488|  1.5111e-01|   -2.341660|
|         489|  1.5110e-01|   -2.341529|
|         490|  1.5118e-01|   -2.341452|
|         491|  1.5127e-01|   -2.341305|
|         492|  1.5132e-01|   -2.341214|
|         493|  1.5129e-01|   -2.341088|
|         494|  1.5131e-01|   -2.341028|
|         495|  1.5146e-01|   -2.340897|
|         496|  1.5146e-01|   -2.340835|
|         497|  1.5155e-01|   -2.340694|
|         498|  1.5163e-01|   -2.340627|
|         499|  1.5170e-01|   -2.340485|
|         500|  1.5174e-01|   -2.340402|
+-----------------------------------------------------------------------+
|        File Writing Summary       |              Filename             |
+-----------------------------------------------------------------------+
|SU2 restart                        |flo.dat                            |
|Paraview binary                    |flow.vtk                           |
|Paraview binary surface            |surface_flow.vtk                   |
+-----------------------------------------------------------------------+
+--------------------------------------+
|  Inner_Iter|   Time(sec)|    rms[Rho]|
+--------------------------------------+
|         501|  1.5174e-01|   -2.340246|
|         502|  1.5171e-01|   -2.340142|
|         503|  1.5168e-01|   -2.339964|
|         504|  1.5169e-01|   -2.339846|
|         505|  1.5171e-01|   -2.339651|
|         506|  1.5176e-01|   -2.339511|
|         507|  1.5178e-01|   -2.339284|
|         508|  1.5181e-01|   -2.339122|
|         509|  1.5185e-01|   -2.338872|
|         510|  1.5191e-01|   -2.338680|
|         511|  1.5195e-01|   -2.338410|
|         512|  1.5196e-01|   -2.338188|
|         513|  1.5199e-01|   -2.337896|
|         514|  1.5204e-01|   -2.337649|
|         515|  1.5208e-01|   -2.337336|
|         516|  1.5213e-01|   -2.337074|
|         517|  1.5220e-01|   -2.336730|
|         518|  1.5218e-01|   -2.336447|
|         519|  1.5214e-01|   -2.336076|
|         520|  1.5214e-01|   -2.335771|
|         521|  1.5216e-01|   -2.335383|
|         522|  1.5225e-01|   -2.335046|
|         523|  1.5246e-01|   -2.334636|
|         524|  1.5249e-01|   -2.334273|
|         525|  1.5246e-01|   -2.333834|
|         526|  1.5242e-01|   -2.333449|
|         527|  1.5239e-01|   -2.332989|
|         528|  1.5235e-01|   -2.332576|
|         529|  1.5231e-01|   -2.332078|
|         530|  1.5230e-01|   -2.331635|
|         531|  1.5238e-01|   -2.331111|
|         532|  1.5236e-01|   -2.330634|
|         533|  1.5233e-01|   -2.330079|
|         534|  1.5237e-01|   -2.329561|
|         535|  1.5237e-01|   -2.328974|
|         536|  1.5234e-01|   -2.328418|
|         537|  1.5230e-01|   -2.327797|
|         538|  1.5227e-01|   -2.327210|
|         539|  1.5223e-01|   -2.326544|
|         540|  1.5220e-01|   -2.325919|
|         541|  1.5218e-01|   -2.325212|
|         542|  1.5222e-01|   -2.324550|
|         543|  1.5229e-01|   -2.323808|
|         544|  1.5234e-01|   -2.323111|
|         545|  1.5240e-01|   -2.322338|
|         546|  1.5244e-01|   -2.321605|
|         547|  1.5254e-01|   -2.320790|
|         548|  1.5252e-01|   -2.320019|
|         549|  1.5249e-01|   -2.319169|
|         550|  1.5246e-01|   -2.318353|
|         551|  1.5243e-01|   -2.317453|
|         552|  1.5240e-01|   -2.316593|
|         553|  1.5236e-01|   -2.315653|
|         554|  1.5233e-01|   -2.314747|
|         555|  1.5230e-01|   -2.313766|
|         556|  1.5226e-01|   -2.312809|
|         557|  1.5223e-01|   -2.311782|
|         558|  1.5220e-01|   -2.310773|
|         559|  1.5216e-01|   -2.309695|
|         560|  1.5213e-01|   -2.308638|
|         561|  1.5210e-01|   -2.307503|
|         562|  1.5206e-01|   -2.306422|
|         563|  1.5203e-01|   -2.305261|
|         564|  1.5200e-01|   -2.304145|
|         565|  1.5197e-01|   -2.302948|
|         566|  1.5193e-01|   -2.301803|
|         567|  1.5190e-01|   -2.300582|
|         568|  1.5187e-01|   -2.299411|
|         569|  1.5184e-01|   -2.298188|
|         570|  1.5180e-01|   -2.297008|
|         571|  1.5177e-01|   -2.295769|
|         572|  1.5174e-01|   -2.294568|
|         573|  1.5171e-01|   -2.293298|
|         574|  1.5167e-01|   -2.292077|
|         575|  1.5164e-01|   -2.290790|
|         576|  1.5161e-01|   -2.289550|
|         577|  1.5158e-01|   -2.288245|
|         578|  1.5161e-01|   -2.286984|
|         579|  1.5170e-01|   -2.285661|
|         580|  1.5171e-01|   -2.284389|
|         581|  1.5168e-01|   -2.283057|
|         582|  1.5166e-01|   -2.281786|
|         583|  1.5164e-01|   -2.280438|
|         584|  1.5162e-01|   -2.279166|
|         585|  1.5160e-01|   -2.277809|
|         586|  1.5158e-01|   -2.276542|
|         587|  1.5155e-01|   -2.275190|
|         588|  1.5153e-01|   -2.273919|
|         589|  1.5151e-01|   -2.272569|
|         590|  1.5150e-01|   -2.271303|
|         591|  1.5149e-01|   -2.269955|
|         592|  1.5152e-01|   -2.268706|
|         593|  1.5150e-01|   -2.267374|
|         594|  1.5148e-01|   -2.266140|
|         595|  1.5147e-01|   -2.264818|
|         596|  1.5144e-01|   -2.263606|
|         597|  1.5142e-01|   -2.262305|
|         598|  1.5139e-01|   -2.261113|
|         599|  1.5137e-01|   -2.259839|
|         600|  1.5135e-01|   -2.258670|
+-----------------------------------------------------------------------+
|        File Writing Summary       |              Filename             |
+-----------------------------------------------------------------------+
|SU2 restart                        |flo.dat                            |
|Paraview binary                    |flow.vtk                           |
|Paraview binary surface            |surface_flow.vtk                   |
+-----------------------------------------------------------------------+
+--------------------------------------+
|  Inner_Iter|   Time(sec)|    rms[Rho]|
+--------------------------------------+
|         601|  1.5136e-01|   -2.257425|
|         602|  1.5133e-01|   -2.256284|
|         603|  1.5130e-01|   -2.255072|
|         604|  1.5128e-01|   -2.253971|
|         605|  1.5125e-01|   -2.252790|
|         606|  1.5123e-01|   -2.251725|
|         607|  1.5121e-01|   -2.250582|
|         608|  1.5120e-01|   -2.249560|
|         609|  1.5117e-01|   -2.248463|
|         610|  1.5119e-01|   -2.247478|
|         611|  1.5118e-01|   -2.246426|
|         612|  1.5116e-01|   -2.245485|
|         613|  1.5115e-01|   -2.244478|
|         614|  1.5114e-01|   -2.243585|
